file 78030292 1617512281                                        
version 2
run Exp1DropTailWithoutPolicingAndShaping-0-20210404-00:57:15-71490
attr configname Exp1DropTailWithoutPolicingAndShaping
attr datetime 20210404-00:57:15
attr experiment Exp1DropTailWithoutPolicingAndShaping
attr inifile omnetpp.ini
attr iterationvars ""
attr iterationvarsf ""
attr measurement ""
attr network NetworkWithShapingAndPolicing
attr processid 71490
attr repetition 0
attr replication #0
attr resultdir results
attr runnumber 0
attr seedset 0
param **.ppp[*].ppp.queue.typename "\"DropTailQueue\""
param **.eth[*].mac.queue.typename "\"EtherQosQueue\""
param **.eth[*].mac.queue.dataQueue.typename "\"DropTailQueue\""
param **.queue.packetCapacity 100
param **.H?.numApps 3
param **.H1.app[0].typename "\"UdpBasicBurst\""
param **.H1.app[0].destAddresses "\"H2\""
param **.H1.app[0].chooseDestAddrMode "\"once\""
param **.H1.app[0].destPort 1000
param **.H1.app[0].startTime uniform(1s,2s)
param **.H1.app[0].stopTime 1200s
param **.H1.app[0].messageLength 172B
param **.H1.app[0].burstDuration exponential(0.352s)
param **.H1.app[0].sleepDuration exponential(0.650s)
param **.H1.app[0].sendInterval 20ms
param **.H2.app[0].typename "\"UdpBasicBurst\""
param **.H2.app[0].localPort 1000
param **.H2.app[0].delayLimit 0ms
param **.H2.app[0].destAddresses "\"\""
param **.H2.app[0].chooseDestAddrMode "\"once\""
param **.H2.app[0].destPort 0
param **.H2.app[0].messageLength 0B
param **.H2.app[0].burstDuration 0s
param **.H2.app[0].sleepDuration 0s
param **.H2.app[0].sendInterval 0ms
param **.H1.app[1].typename "\"UdpBasicApp\""
param **.H1.app[1].destPort 2000
param **.H1.app[1].startTime uniform(1s,2s)
param **.H1.app[1].stopTime 1200s
param **.H1.app[1].sendInterval 40ms
param **.H1.app[1].messageLength 500B
param **.H1.app[1].destAddresses "\"H2\""
param **.H2.app[1].typename "\"UdpSink\""
param **.H2.app[1].localPort 2000
param **.H1.app[2].typename "\"TcpBasicClientApp\""
param **.H1.app[2].connectAddress "\"H2\""
param **.H1.app[2].connectPort 3000
param **.H1.app[2].numRequestsPerSession 1
param **.H1.app[2].requestLength 50B
param **.H1.app[2].replyLength 100B
param **.H1.app[2].thinkTime 40ms
param **.H1.app[2].idleInterval 10s
param **.H1.app[2].stopTime 1200s
param **.H2.app[2].typename "\"TcpGenericServerApp\""
param **.H2.app[2].localPort 3000
param **.edgeDatarate 32kbps
param **.coreDatarate 16kbps
param **.R1.eth[?].ingressTC.typename "\"TC1\""
param **.R15.eth[?].ingressTC.typename "\"TC1\""
param **.ingressTC.numClasses 3
param **.ingressTC.classifier.filters "xmldoc(\"filters.xml\", \"//experiment[@id='default']\")"
param **.ingressTC.marker.dscps "\"AF11 AF21 AF31 AF41 BE\""
param **.queue.typename "\"EtherQosQueue\""
param **.queue.dataQueue.typename "\"DropTailQueue\""
param **.queue.packetCapacity 100
param **.queue.dataQueue.packetCapacity 100
param **.R*.hasOspf true
param **.R*.ospf.ospfConfig "xmldoc(\"OSPFConfig.xml\")"

vector 0 NetworkWithShapingAndPolicing.R1.pppg$o[0].channel busy:vector ETV
attr interpolationmode sample-hold
attr source channelBusy
vector 1 NetworkWithShapingAndPolicing.R1.pppg$o[1].channel busy:vector ETV
attr interpolationmode sample-hold
attr source channelBusy
vector 2 NetworkWithShapingAndPolicing.R1.ethg$o[0].channel busy:vector ETV
attr interpolationmode sample-hold
attr source channelBusy
vector 3 NetworkWithShapingAndPolicing.R2.pppg$o[0].channel busy:vector ETV
attr interpolationmode sample-hold
attr source channelBusy
vector 4 NetworkWithShapingAndPolicing.R2.pppg$o[1].channel busy:vector ETV
attr interpolationmode sample-hold
attr source channelBusy
vector 5 NetworkWithShapingAndPolicing.R2.pppg$o[2].channel busy:vector ETV
attr interpolationmode sample-hold
attr source channelBusy
vector 6 NetworkWithShapingAndPolicing.R3.pppg$o[0].channel busy:vector ETV
attr interpolationmode sample-hold
attr source channelBusy
vector 7 NetworkWithShapingAndPolicing.R3.pppg$o[1].channel busy:vector ETV
attr interpolationmode sample-hold
attr source channelBusy
vector 8 NetworkWithShapingAndPolicing.R4.pppg$o[0].channel busy:vector ETV
attr interpolationmode sample-hold
attr source channelBusy
vector 9 NetworkWithShapingAndPolicing.R4.pppg$o[1].channel busy:vector ETV
attr interpolationmode sample-hold
attr source channelBusy
vector 10 NetworkWithShapingAndPolicing.R5.pppg$o[0].channel busy:vector ETV
attr interpolationmode sample-hold
attr source channelBusy
vector 11 NetworkWithShapingAndPolicing.R5.pppg$o[1].channel busy:vector ETV
attr interpolationmode sample-hold
attr source channelBusy
vector 12 NetworkWithShapingAndPolicing.R6.pppg$o[0].channel busy:vector ETV
attr interpolationmode sample-hold
attr source channelBusy
vector 13 NetworkWithShapingAndPolicing.R6.pppg$o[1].channel busy:vector ETV
attr interpolationmode sample-hold
attr source channelBusy
vector 14 NetworkWithShapingAndPolicing.R7.pppg$o[0].channel busy:vector ETV
attr interpolationmode sample-hold
attr source channelBusy
vector 15 NetworkWithShapingAndPolicing.R7.pppg$o[1].channel busy:vector ETV
attr interpolationmode sample-hold
attr source channelBusy
vector 16 NetworkWithShapingAndPolicing.R7.pppg$o[2].channel busy:vector ETV
attr interpolationmode sample-hold
attr source channelBusy
vector 17 NetworkWithShapingAndPolicing.R11.pppg$o[0].channel busy:vector ETV
attr interpolationmode sample-hold
attr source channelBusy
vector 18 NetworkWithShapingAndPolicing.R11.pppg$o[1].channel busy:vector ETV
attr interpolationmode sample-hold
attr source channelBusy
vector 19 NetworkWithShapingAndPolicing.R12.pppg$o[0].channel busy:vector ETV
attr interpolationmode sample-hold
attr source channelBusy
vector 20 NetworkWithShapingAndPolicing.R12.pppg$o[1].channel busy:vector ETV
attr interpolationmode sample-hold
attr source channelBusy
vector 21 NetworkWithShapingAndPolicing.R13.pppg$o[0].channel busy:vector ETV
attr interpolationmode sample-hold
attr source channelBusy
vector 22 NetworkWithShapingAndPolicing.R13.pppg$o[1].channel busy:vector ETV
attr interpolationmode sample-hold
attr source channelBusy
vector 23 NetworkWithShapingAndPolicing.R9.pppg$o[0].channel busy:vector ETV
attr interpolationmode sample-hold
attr source channelBusy
vector 24 NetworkWithShapingAndPolicing.R9.pppg$o[1].channel busy:vector ETV
attr interpolationmode sample-hold
attr source channelBusy
vector 25 NetworkWithShapingAndPolicing.R9.pppg$o[2].channel busy:vector ETV
attr interpolationmode sample-hold
attr source channelBusy
vector 26 NetworkWithShapingAndPolicing.R9.pppg$o[3].channel busy:vector ETV
attr interpolationmode sample-hold
attr source channelBusy
vector 27 NetworkWithShapingAndPolicing.R10.pppg$o[0].channel busy:vector ETV
attr interpolationmode sample-hold
attr source channelBusy
vector 28 NetworkWithShapingAndPolicing.R10.pppg$o[1].channel busy:vector ETV
attr interpolationmode sample-hold
attr source channelBusy
vector 29 NetworkWithShapingAndPolicing.R14.pppg$o[0].channel busy:vector ETV
attr interpolationmode sample-hold
attr source channelBusy
vector 30 NetworkWithShapingAndPolicing.R14.pppg$o[1].channel busy:vector ETV
attr interpolationmode sample-hold
attr source channelBusy
vector 31 NetworkWithShapingAndPolicing.R8.pppg$o[0].channel busy:vector ETV
attr interpolationmode sample-hold
attr source channelBusy
vector 32 NetworkWithShapingAndPolicing.R8.pppg$o[1].channel busy:vector ETV
attr interpolationmode sample-hold
attr source channelBusy
vector 33 NetworkWithShapingAndPolicing.R8.pppg$o[2].channel busy:vector ETV
attr interpolationmode sample-hold
attr source channelBusy
vector 34 NetworkWithShapingAndPolicing.R15.pppg$o[0].channel busy:vector ETV
attr interpolationmode sample-hold
attr source channelBusy
vector 35 NetworkWithShapingAndPolicing.R15.pppg$o[1].channel busy:vector ETV
attr interpolationmode sample-hold
attr source channelBusy
vector 36 NetworkWithShapingAndPolicing.R15.pppg$o[2].channel busy:vector ETV
attr interpolationmode sample-hold
attr source channelBusy
vector 37 NetworkWithShapingAndPolicing.R15.ethg$o[0].channel busy:vector ETV
attr interpolationmode sample-hold
attr source channelBusy
vector 38 NetworkWithShapingAndPolicing.H1.ethg$o[0].channel busy:vector ETV
attr interpolationmode sample-hold
attr source channelBusy
vector 39 NetworkWithShapingAndPolicing.H2.ethg$o[0].channel busy:vector ETV
attr interpolationmode sample-hold
attr source channelBusy
vector 40 NetworkWithShapingAndPolicing.R1.ppp[0].ppp transmissionState:vector ETV
attr interpolationmode sample-hold
attr source transmissionStateChanged
attr title "tx state, vector"
vector 41 NetworkWithShapingAndPolicing.R1.ppp[1].ppp transmissionState:vector ETV
attr interpolationmode sample-hold
attr source transmissionStateChanged
attr title "tx state, vector"
vector 42 NetworkWithShapingAndPolicing.R2.ppp[0].ppp transmissionState:vector ETV
attr interpolationmode sample-hold
attr source transmissionStateChanged
attr title "tx state, vector"
vector 43 NetworkWithShapingAndPolicing.R2.ppp[1].ppp transmissionState:vector ETV
attr interpolationmode sample-hold
attr source transmissionStateChanged
attr title "tx state, vector"
vector 44 NetworkWithShapingAndPolicing.R2.ppp[2].ppp transmissionState:vector ETV
attr interpolationmode sample-hold
attr source transmissionStateChanged
attr title "tx state, vector"
vector 45 NetworkWithShapingAndPolicing.R3.ppp[0].ppp transmissionState:vector ETV
attr interpolationmode sample-hold
attr source transmissionStateChanged
attr title "tx state, vector"
vector 46 NetworkWithShapingAndPolicing.R3.ppp[1].ppp transmissionState:vector ETV
attr interpolationmode sample-hold
attr source transmissionStateChanged
attr title "tx state, vector"
vector 47 NetworkWithShapingAndPolicing.R4.ppp[0].ppp transmissionState:vector ETV
attr interpolationmode sample-hold
attr source transmissionStateChanged
attr title "tx state, vector"
vector 48 NetworkWithShapingAndPolicing.R4.ppp[1].ppp transmissionState:vector ETV
attr interpolationmode sample-hold
attr source transmissionStateChanged
attr title "tx state, vector"
vector 49 NetworkWithShapingAndPolicing.R5.ppp[0].ppp transmissionState:vector ETV
attr interpolationmode sample-hold
attr source transmissionStateChanged
attr title "tx state, vector"
vector 50 NetworkWithShapingAndPolicing.R5.ppp[1].ppp transmissionState:vector ETV
attr interpolationmode sample-hold
attr source transmissionStateChanged
attr title "tx state, vector"
vector 51 NetworkWithShapingAndPolicing.R6.ppp[0].ppp transmissionState:vector ETV
attr interpolationmode sample-hold
attr source transmissionStateChanged
attr title "tx state, vector"
vector 52 NetworkWithShapingAndPolicing.R6.ppp[1].ppp transmissionState:vector ETV
attr interpolationmode sample-hold
attr source transmissionStateChanged
attr title "tx state, vector"
vector 53 NetworkWithShapingAndPolicing.R7.ppp[0].ppp transmissionState:vector ETV
attr interpolationmode sample-hold
attr source transmissionStateChanged
attr title "tx state, vector"
vector 54 NetworkWithShapingAndPolicing.R7.ppp[1].ppp transmissionState:vector ETV
attr interpolationmode sample-hold
attr source transmissionStateChanged
attr title "tx state, vector"
vector 55 NetworkWithShapingAndPolicing.R7.ppp[2].ppp transmissionState:vector ETV
attr interpolationmode sample-hold
attr source transmissionStateChanged
attr title "tx state, vector"
vector 56 NetworkWithShapingAndPolicing.R11.ppp[0].ppp transmissionState:vector ETV
attr interpolationmode sample-hold
attr source transmissionStateChanged
attr title "tx state, vector"
vector 57 NetworkWithShapingAndPolicing.R11.ppp[1].ppp transmissionState:vector ETV
attr interpolationmode sample-hold
attr source transmissionStateChanged
attr title "tx state, vector"
vector 58 NetworkWithShapingAndPolicing.R12.ppp[0].ppp transmissionState:vector ETV
attr interpolationmode sample-hold
attr source transmissionStateChanged
attr title "tx state, vector"
vector 59 NetworkWithShapingAndPolicing.R12.ppp[1].ppp transmissionState:vector ETV
attr interpolationmode sample-hold
attr source transmissionStateChanged
attr title "tx state, vector"
vector 60 NetworkWithShapingAndPolicing.R13.ppp[0].ppp transmissionState:vector ETV
attr interpolationmode sample-hold
attr source transmissionStateChanged
attr title "tx state, vector"
vector 61 NetworkWithShapingAndPolicing.R13.ppp[1].ppp transmissionState:vector ETV
attr interpolationmode sample-hold
attr source transmissionStateChanged
attr title "tx state, vector"
vector 62 NetworkWithShapingAndPolicing.R9.ppp[0].ppp transmissionState:vector ETV
attr interpolationmode sample-hold
attr source transmissionStateChanged
attr title "tx state, vector"
vector 63 NetworkWithShapingAndPolicing.R9.ppp[1].ppp transmissionState:vector ETV
attr interpolationmode sample-hold
attr source transmissionStateChanged
attr title "tx state, vector"
vector 64 NetworkWithShapingAndPolicing.R9.ppp[2].ppp transmissionState:vector ETV
attr interpolationmode sample-hold
attr source transmissionStateChanged
attr title "tx state, vector"
vector 65 NetworkWithShapingAndPolicing.R9.ppp[3].ppp transmissionState:vector ETV
attr interpolationmode sample-hold
attr source transmissionStateChanged
attr title "tx state, vector"
vector 66 NetworkWithShapingAndPolicing.R10.ppp[0].ppp transmissionState:vector ETV
attr interpolationmode sample-hold
attr source transmissionStateChanged
attr title "tx state, vector"
vector 67 NetworkWithShapingAndPolicing.R10.ppp[1].ppp transmissionState:vector ETV
attr interpolationmode sample-hold
attr source transmissionStateChanged
attr title "tx state, vector"
vector 68 NetworkWithShapingAndPolicing.R14.ppp[0].ppp transmissionState:vector ETV
attr interpolationmode sample-hold
attr source transmissionStateChanged
attr title "tx state, vector"
vector 69 NetworkWithShapingAndPolicing.R14.ppp[1].ppp transmissionState:vector ETV
attr interpolationmode sample-hold
attr source transmissionStateChanged
attr title "tx state, vector"
vector 70 NetworkWithShapingAndPolicing.R8.ppp[0].ppp transmissionState:vector ETV
attr interpolationmode sample-hold
attr source transmissionStateChanged
attr title "tx state, vector"
vector 71 NetworkWithShapingAndPolicing.R8.ppp[1].ppp transmissionState:vector ETV
attr interpolationmode sample-hold
attr source transmissionStateChanged
attr title "tx state, vector"
vector 72 NetworkWithShapingAndPolicing.R8.ppp[2].ppp transmissionState:vector ETV
attr interpolationmode sample-hold
attr source transmissionStateChanged
attr title "tx state, vector"
vector 73 NetworkWithShapingAndPolicing.R15.ppp[0].ppp transmissionState:vector ETV
attr interpolationmode sample-hold
attr source transmissionStateChanged
attr title "tx state, vector"
vector 74 NetworkWithShapingAndPolicing.R15.ppp[1].ppp transmissionState:vector ETV
attr interpolationmode sample-hold
attr source transmissionStateChanged
attr title "tx state, vector"
vector 75 NetworkWithShapingAndPolicing.R15.ppp[2].ppp transmissionState:vector ETV
attr interpolationmode sample-hold
attr source transmissionStateChanged
attr title "tx state, vector"
vector 76 NetworkWithShapingAndPolicing.R12.ppp[0].ppp rcvdPkFromHl:vector(packetBytes) ETV
attr interpolationmode none
attr source packetReceivedFromUpper
attr title "packets received from higher layer, vector(packetBytes)"
vector 77 NetworkWithShapingAndPolicing.R12.ppp[0].ppp.queue packetPushed:vector(packetBytes) ETV
attr interpolationmode none
attr title "packet pushed, vector(packetBytes)"
vector 78 NetworkWithShapingAndPolicing.R12.ppp[0].ppp.queue queueLength:vector ETV
attr interpolationmode sample-hold
attr source "count(packetPushed) - count(packetPopped) - count(packetRemoved) - count(packetDropped)"
attr title "queue length, vector"
vector 79 NetworkWithShapingAndPolicing.R12.ppp[0].ppp.queue packetPopped:vector(packetBytes) ETV
attr interpolationmode none
attr title "packet popped, vector(packetBytes)"
vector 80 NetworkWithShapingAndPolicing.R12.ppp[0].ppp.queue queueingTime:vector ETV
attr interpolationmode none
attr source queueingTime(packetPopped)
attr title "queueing times, vector"
attr unit s
vector 81 NetworkWithShapingAndPolicing.R12.ppp[0].ppp txPk:vector(packetBytes) ETV
attr interpolationmode none
attr source packetSentToLower
attr title "packets transmitted, vector(packetBytes)"
vector 82 NetworkWithShapingAndPolicing.R9.ppp[1].ppp rcvdPkFromHl:vector(packetBytes) ETV
attr interpolationmode none
attr source packetReceivedFromUpper
attr title "packets received from higher layer, vector(packetBytes)"
vector 83 NetworkWithShapingAndPolicing.R9.ppp[1].ppp.queue packetPushed:vector(packetBytes) ETV
attr interpolationmode none
attr title "packet pushed, vector(packetBytes)"
vector 84 NetworkWithShapingAndPolicing.R9.ppp[1].ppp.queue queueLength:vector ETV
attr interpolationmode sample-hold
attr source "count(packetPushed) - count(packetPopped) - count(packetRemoved) - count(packetDropped)"
attr title "queue length, vector"
vector 85 NetworkWithShapingAndPolicing.R9.ppp[1].ppp.queue packetPopped:vector(packetBytes) ETV
attr interpolationmode none
attr title "packet popped, vector(packetBytes)"
vector 86 NetworkWithShapingAndPolicing.R9.ppp[1].ppp.queue queueingTime:vector ETV
attr interpolationmode none
attr source queueingTime(packetPopped)
attr title "queueing times, vector"
attr unit s
vector 87 NetworkWithShapingAndPolicing.R9.ppp[1].ppp txPk:vector(packetBytes) ETV
attr interpolationmode none
attr source packetSentToLower
attr title "packets transmitted, vector(packetBytes)"
vector 88 NetworkWithShapingAndPolicing.R5.ppp[0].ppp rcvdPkFromHl:vector(packetBytes) ETV
attr interpolationmode none
attr source packetReceivedFromUpper
attr title "packets received from higher layer, vector(packetBytes)"
vector 89 NetworkWithShapingAndPolicing.R5.ppp[0].ppp.queue packetPushed:vector(packetBytes) ETV
attr interpolationmode none
attr title "packet pushed, vector(packetBytes)"
vector 90 NetworkWithShapingAndPolicing.R5.ppp[0].ppp.queue queueLength:vector ETV
attr interpolationmode sample-hold
attr source "count(packetPushed) - count(packetPopped) - count(packetRemoved) - count(packetDropped)"
attr title "queue length, vector"
vector 91 NetworkWithShapingAndPolicing.R5.ppp[0].ppp.queue packetPopped:vector(packetBytes) ETV
attr interpolationmode none
attr title "packet popped, vector(packetBytes)"
vector 92 NetworkWithShapingAndPolicing.R5.ppp[0].ppp.queue queueingTime:vector ETV
attr interpolationmode none
attr source queueingTime(packetPopped)
attr title "queueing times, vector"
attr unit s
vector 93 NetworkWithShapingAndPolicing.R5.ppp[0].ppp txPk:vector(packetBytes) ETV
attr interpolationmode none
attr source packetSentToLower
attr title "packets transmitted, vector(packetBytes)"
vector 94 NetworkWithShapingAndPolicing.R13.ppp[0].ppp rcvdPkFromHl:vector(packetBytes) ETV
attr interpolationmode none
attr source packetReceivedFromUpper
attr title "packets received from higher layer, vector(packetBytes)"
vector 95 NetworkWithShapingAndPolicing.R13.ppp[0].ppp.queue packetPushed:vector(packetBytes) ETV
attr interpolationmode none
attr title "packet pushed, vector(packetBytes)"
vector 96 NetworkWithShapingAndPolicing.R13.ppp[0].ppp.queue queueLength:vector ETV
attr interpolationmode sample-hold
attr source "count(packetPushed) - count(packetPopped) - count(packetRemoved) - count(packetDropped)"
attr title "queue length, vector"
vector 97 NetworkWithShapingAndPolicing.R13.ppp[0].ppp.queue packetPopped:vector(packetBytes) ETV
attr interpolationmode none
attr title "packet popped, vector(packetBytes)"
vector 98 NetworkWithShapingAndPolicing.R13.ppp[0].ppp.queue queueingTime:vector ETV
attr interpolationmode none
attr source queueingTime(packetPopped)
attr title "queueing times, vector"
attr unit s
vector 99 NetworkWithShapingAndPolicing.R13.ppp[0].ppp txPk:vector(packetBytes) ETV
attr interpolationmode none
attr source packetSentToLower
attr title "packets transmitted, vector(packetBytes)"
vector 100 NetworkWithShapingAndPolicing.R2.ppp[1].ppp rcvdPkFromHl:vector(packetBytes) ETV
attr interpolationmode none
attr source packetReceivedFromUpper
attr title "packets received from higher layer, vector(packetBytes)"
vector 101 NetworkWithShapingAndPolicing.R2.ppp[1].ppp.queue packetPushed:vector(packetBytes) ETV
attr interpolationmode none
attr title "packet pushed, vector(packetBytes)"
vector 102 NetworkWithShapingAndPolicing.R2.ppp[1].ppp.queue queueLength:vector ETV
attr interpolationmode sample-hold
attr source "count(packetPushed) - count(packetPopped) - count(packetRemoved) - count(packetDropped)"
attr title "queue length, vector"
vector 103 NetworkWithShapingAndPolicing.R2.ppp[1].ppp.queue packetPopped:vector(packetBytes) ETV
attr interpolationmode none
attr title "packet popped, vector(packetBytes)"
vector 104 NetworkWithShapingAndPolicing.R2.ppp[1].ppp.queue queueingTime:vector ETV
attr interpolationmode none
attr source queueingTime(packetPopped)
attr title "queueing times, vector"
attr unit s
vector 105 NetworkWithShapingAndPolicing.R2.ppp[1].ppp txPk:vector(packetBytes) ETV
attr interpolationmode none
attr source packetSentToLower
attr title "packets transmitted, vector(packetBytes)"
vector 106 NetworkWithShapingAndPolicing.R15.ppp[2].ppp rcvdPkFromHl:vector(packetBytes) ETV
attr interpolationmode none
attr source packetReceivedFromUpper
attr title "packets received from higher layer, vector(packetBytes)"
vector 107 NetworkWithShapingAndPolicing.R15.ppp[2].ppp.queue packetPushed:vector(packetBytes) ETV
attr interpolationmode none
attr title "packet pushed, vector(packetBytes)"
vector 108 NetworkWithShapingAndPolicing.R15.ppp[2].ppp.queue queueLength:vector ETV
attr interpolationmode sample-hold
attr source "count(packetPushed) - count(packetPopped) - count(packetRemoved) - count(packetDropped)"
attr title "queue length, vector"
vector 109 NetworkWithShapingAndPolicing.R15.ppp[2].ppp.queue packetPopped:vector(packetBytes) ETV
attr interpolationmode none
attr title "packet popped, vector(packetBytes)"
vector 110 NetworkWithShapingAndPolicing.R15.ppp[2].ppp.queue queueingTime:vector ETV
attr interpolationmode none
attr source queueingTime(packetPopped)
attr title "queueing times, vector"
attr unit s
vector 111 NetworkWithShapingAndPolicing.R15.ppp[2].ppp txPk:vector(packetBytes) ETV
attr interpolationmode none
attr source packetSentToLower
attr title "packets transmitted, vector(packetBytes)"
vector 112 NetworkWithShapingAndPolicing.R10.ppp[1].ppp rcvdPkFromHl:vector(packetBytes) ETV
attr interpolationmode none
attr source packetReceivedFromUpper
attr title "packets received from higher layer, vector(packetBytes)"
vector 113 NetworkWithShapingAndPolicing.R10.ppp[1].ppp.queue packetPushed:vector(packetBytes) ETV
attr interpolationmode none
attr title "packet pushed, vector(packetBytes)"
vector 114 NetworkWithShapingAndPolicing.R10.ppp[1].ppp.queue queueLength:vector ETV
attr interpolationmode sample-hold
attr source "count(packetPushed) - count(packetPopped) - count(packetRemoved) - count(packetDropped)"
attr title "queue length, vector"
vector 115 NetworkWithShapingAndPolicing.R10.ppp[1].ppp.queue packetPopped:vector(packetBytes) ETV
attr interpolationmode none
attr title "packet popped, vector(packetBytes)"
vector 116 NetworkWithShapingAndPolicing.R10.ppp[1].ppp.queue queueingTime:vector ETV
attr interpolationmode none
attr source queueingTime(packetPopped)
attr title "queueing times, vector"
attr unit s
vector 117 NetworkWithShapingAndPolicing.R10.ppp[1].ppp txPk:vector(packetBytes) ETV
attr interpolationmode none
attr source packetSentToLower
attr title "packets transmitted, vector(packetBytes)"
vector 118 NetworkWithShapingAndPolicing.R5.ppp[1].ppp rcvdPkFromHl:vector(packetBytes) ETV
attr interpolationmode none
attr source packetReceivedFromUpper
attr title "packets received from higher layer, vector(packetBytes)"
vector 119 NetworkWithShapingAndPolicing.R5.ppp[1].ppp.queue packetPushed:vector(packetBytes) ETV
attr interpolationmode none
attr title "packet pushed, vector(packetBytes)"
vector 120 NetworkWithShapingAndPolicing.R5.ppp[1].ppp.queue queueLength:vector ETV
attr interpolationmode sample-hold
attr source "count(packetPushed) - count(packetPopped) - count(packetRemoved) - count(packetDropped)"
attr title "queue length, vector"
vector 121 NetworkWithShapingAndPolicing.R5.ppp[1].ppp.queue packetPopped:vector(packetBytes) ETV
attr interpolationmode none
attr title "packet popped, vector(packetBytes)"
vector 122 NetworkWithShapingAndPolicing.R5.ppp[1].ppp.queue queueingTime:vector ETV
attr interpolationmode none
attr source queueingTime(packetPopped)
attr title "queueing times, vector"
attr unit s
vector 123 NetworkWithShapingAndPolicing.R5.ppp[1].ppp txPk:vector(packetBytes) ETV
attr interpolationmode none
attr source packetSentToLower
attr title "packets transmitted, vector(packetBytes)"
vector 124 NetworkWithShapingAndPolicing.R4.ppp[0].ppp rcvdPkFromHl:vector(packetBytes) ETV
attr interpolationmode none
attr source packetReceivedFromUpper
attr title "packets received from higher layer, vector(packetBytes)"
vector 125 NetworkWithShapingAndPolicing.R4.ppp[0].ppp.queue packetPushed:vector(packetBytes) ETV
attr interpolationmode none
attr title "packet pushed, vector(packetBytes)"
vector 126 NetworkWithShapingAndPolicing.R4.ppp[0].ppp.queue queueLength:vector ETV
attr interpolationmode sample-hold
attr source "count(packetPushed) - count(packetPopped) - count(packetRemoved) - count(packetDropped)"
attr title "queue length, vector"
vector 127 NetworkWithShapingAndPolicing.R4.ppp[0].ppp.queue packetPopped:vector(packetBytes) ETV
attr interpolationmode none
attr title "packet popped, vector(packetBytes)"
vector 128 NetworkWithShapingAndPolicing.R4.ppp[0].ppp.queue queueingTime:vector ETV
attr interpolationmode none
attr source queueingTime(packetPopped)
attr title "queueing times, vector"
attr unit s
vector 129 NetworkWithShapingAndPolicing.R4.ppp[0].ppp txPk:vector(packetBytes) ETV
attr interpolationmode none
attr source packetSentToLower
attr title "packets transmitted, vector(packetBytes)"
vector 130 NetworkWithShapingAndPolicing.R15.ppp[1].ppp rxPkOk:vector(packetBytes) ETV
attr interpolationmode none
attr source rxPkOk
attr title "packets received OK, vector(packetBytes)"
vector 131 NetworkWithShapingAndPolicing.R15.ppp[1].ppp passedUpPk:vector(packetBytes) ETV
attr interpolationmode none
attr source packetSentToUpper
attr title "packets passed to higher layer, vector(packetBytes)"
vector 132 NetworkWithShapingAndPolicing.R13.ppp[1].ppp rcvdPkFromHl:vector(packetBytes) ETV
attr interpolationmode none
attr source packetReceivedFromUpper
attr title "packets received from higher layer, vector(packetBytes)"
vector 133 NetworkWithShapingAndPolicing.R13.ppp[1].ppp.queue packetPushed:vector(packetBytes) ETV
attr interpolationmode none
attr title "packet pushed, vector(packetBytes)"
vector 134 NetworkWithShapingAndPolicing.R13.ppp[1].ppp.queue queueLength:vector ETV
attr interpolationmode sample-hold
attr source "count(packetPushed) - count(packetPopped) - count(packetRemoved) - count(packetDropped)"
attr title "queue length, vector"
vector 135 NetworkWithShapingAndPolicing.R13.ppp[1].ppp.queue packetPopped:vector(packetBytes) ETV
attr interpolationmode none
attr title "packet popped, vector(packetBytes)"
vector 136 NetworkWithShapingAndPolicing.R13.ppp[1].ppp.queue queueingTime:vector ETV
attr interpolationmode none
attr source queueingTime(packetPopped)
attr title "queueing times, vector"
attr unit s
vector 137 NetworkWithShapingAndPolicing.R13.ppp[1].ppp txPk:vector(packetBytes) ETV
attr interpolationmode none
attr source packetSentToLower
attr title "packets transmitted, vector(packetBytes)"
vector 138 NetworkWithShapingAndPolicing.R2.ppp[0].ppp rcvdPkFromHl:vector(packetBytes) ETV
attr interpolationmode none
attr source packetReceivedFromUpper
attr title "packets received from higher layer, vector(packetBytes)"
vector 139 NetworkWithShapingAndPolicing.R2.ppp[0].ppp.queue packetPushed:vector(packetBytes) ETV
attr interpolationmode none
attr title "packet pushed, vector(packetBytes)"
vector 140 NetworkWithShapingAndPolicing.R2.ppp[0].ppp.queue queueLength:vector ETV
attr interpolationmode sample-hold
attr source "count(packetPushed) - count(packetPopped) - count(packetRemoved) - count(packetDropped)"
attr title "queue length, vector"
vector 141 NetworkWithShapingAndPolicing.R2.ppp[0].ppp.queue packetPopped:vector(packetBytes) ETV
attr interpolationmode none
attr title "packet popped, vector(packetBytes)"
vector 142 NetworkWithShapingAndPolicing.R2.ppp[0].ppp.queue queueingTime:vector ETV
attr interpolationmode none
attr source queueingTime(packetPopped)
attr title "queueing times, vector"
attr unit s
vector 143 NetworkWithShapingAndPolicing.R2.ppp[0].ppp txPk:vector(packetBytes) ETV
attr interpolationmode none
attr source packetSentToLower
attr title "packets transmitted, vector(packetBytes)"
vector 144 NetworkWithShapingAndPolicing.R9.ppp[2].ppp rcvdPkFromHl:vector(packetBytes) ETV
attr interpolationmode none
attr source packetReceivedFromUpper
attr title "packets received from higher layer, vector(packetBytes)"
vector 145 NetworkWithShapingAndPolicing.R9.ppp[2].ppp.queue packetPushed:vector(packetBytes) ETV
attr interpolationmode none
attr title "packet pushed, vector(packetBytes)"
vector 146 NetworkWithShapingAndPolicing.R9.ppp[2].ppp.queue queueLength:vector ETV
attr interpolationmode sample-hold
attr source "count(packetPushed) - count(packetPopped) - count(packetRemoved) - count(packetDropped)"
attr title "queue length, vector"
vector 147 NetworkWithShapingAndPolicing.R9.ppp[2].ppp.queue packetPopped:vector(packetBytes) ETV
attr interpolationmode none
attr title "packet popped, vector(packetBytes)"
vector 148 NetworkWithShapingAndPolicing.R9.ppp[2].ppp.queue queueingTime:vector ETV
attr interpolationmode none
attr source queueingTime(packetPopped)
attr title "queueing times, vector"
attr unit s
vector 149 NetworkWithShapingAndPolicing.R9.ppp[2].ppp txPk:vector(packetBytes) ETV
attr interpolationmode none
attr source packetSentToLower
attr title "packets transmitted, vector(packetBytes)"
vector 150 NetworkWithShapingAndPolicing.R3.ppp[1].ppp rcvdPkFromHl:vector(packetBytes) ETV
attr interpolationmode none
attr source packetReceivedFromUpper
attr title "packets received from higher layer, vector(packetBytes)"
vector 151 NetworkWithShapingAndPolicing.R3.ppp[1].ppp.queue packetPushed:vector(packetBytes) ETV
attr interpolationmode none
attr title "packet pushed, vector(packetBytes)"
vector 152 NetworkWithShapingAndPolicing.R3.ppp[1].ppp.queue queueLength:vector ETV
attr interpolationmode sample-hold
attr source "count(packetPushed) - count(packetPopped) - count(packetRemoved) - count(packetDropped)"
attr title "queue length, vector"
vector 153 NetworkWithShapingAndPolicing.R3.ppp[1].ppp.queue packetPopped:vector(packetBytes) ETV
attr interpolationmode none
attr title "packet popped, vector(packetBytes)"
vector 154 NetworkWithShapingAndPolicing.R3.ppp[1].ppp.queue queueingTime:vector ETV
attr interpolationmode none
attr source queueingTime(packetPopped)
attr title "queueing times, vector"
attr unit s
vector 155 NetworkWithShapingAndPolicing.R3.ppp[1].ppp txPk:vector(packetBytes) ETV
attr interpolationmode none
attr source packetSentToLower
attr title "packets transmitted, vector(packetBytes)"
vector 156 NetworkWithShapingAndPolicing.R2.ppp[2].ppp rcvdPkFromHl:vector(packetBytes) ETV
attr interpolationmode none
attr source packetReceivedFromUpper
attr title "packets received from higher layer, vector(packetBytes)"
vector 157 NetworkWithShapingAndPolicing.R2.ppp[2].ppp.queue packetPushed:vector(packetBytes) ETV
attr interpolationmode none
attr title "packet pushed, vector(packetBytes)"
vector 158 NetworkWithShapingAndPolicing.R2.ppp[2].ppp.queue queueLength:vector ETV
attr interpolationmode sample-hold
attr source "count(packetPushed) - count(packetPopped) - count(packetRemoved) - count(packetDropped)"
attr title "queue length, vector"
vector 159 NetworkWithShapingAndPolicing.R2.ppp[2].ppp.queue packetPopped:vector(packetBytes) ETV
attr interpolationmode none
attr title "packet popped, vector(packetBytes)"
vector 160 NetworkWithShapingAndPolicing.R2.ppp[2].ppp.queue queueingTime:vector ETV
attr interpolationmode none
attr source queueingTime(packetPopped)
attr title "queueing times, vector"
attr unit s
vector 161 NetworkWithShapingAndPolicing.R2.ppp[2].ppp txPk:vector(packetBytes) ETV
attr interpolationmode none
attr source packetSentToLower
attr title "packets transmitted, vector(packetBytes)"
vector 162 NetworkWithShapingAndPolicing.R7.ppp[0].ppp rcvdPkFromHl:vector(packetBytes) ETV
attr interpolationmode none
attr source packetReceivedFromUpper
attr title "packets received from higher layer, vector(packetBytes)"
vector 163 NetworkWithShapingAndPolicing.R7.ppp[0].ppp.queue packetPushed:vector(packetBytes) ETV
attr interpolationmode none
attr title "packet pushed, vector(packetBytes)"
vector 164 NetworkWithShapingAndPolicing.R7.ppp[0].ppp.queue queueLength:vector ETV
attr interpolationmode sample-hold
attr source "count(packetPushed) - count(packetPopped) - count(packetRemoved) - count(packetDropped)"
attr title "queue length, vector"
vector 165 NetworkWithShapingAndPolicing.R7.ppp[0].ppp.queue packetPopped:vector(packetBytes) ETV
attr interpolationmode none
attr title "packet popped, vector(packetBytes)"
vector 166 NetworkWithShapingAndPolicing.R7.ppp[0].ppp.queue queueingTime:vector ETV
attr interpolationmode none
attr source queueingTime(packetPopped)
attr title "queueing times, vector"
attr unit s
vector 167 NetworkWithShapingAndPolicing.R7.ppp[0].ppp txPk:vector(packetBytes) ETV
attr interpolationmode none
attr source packetSentToLower
attr title "packets transmitted, vector(packetBytes)"
vector 168 NetworkWithShapingAndPolicing.R6.ppp[1].ppp rcvdPkFromHl:vector(packetBytes) ETV
attr interpolationmode none
attr source packetReceivedFromUpper
attr title "packets received from higher layer, vector(packetBytes)"
vector 169 NetworkWithShapingAndPolicing.R6.ppp[1].ppp.queue packetPushed:vector(packetBytes) ETV
attr interpolationmode none
attr title "packet pushed, vector(packetBytes)"
vector 170 NetworkWithShapingAndPolicing.R6.ppp[1].ppp.queue queueLength:vector ETV
attr interpolationmode sample-hold
attr source "count(packetPushed) - count(packetPopped) - count(packetRemoved) - count(packetDropped)"
attr title "queue length, vector"
vector 171 NetworkWithShapingAndPolicing.R6.ppp[1].ppp.queue packetPopped:vector(packetBytes) ETV
attr interpolationmode none
attr title "packet popped, vector(packetBytes)"
vector 172 NetworkWithShapingAndPolicing.R6.ppp[1].ppp.queue queueingTime:vector ETV
attr interpolationmode none
attr source queueingTime(packetPopped)
attr title "queueing times, vector"
attr unit s
vector 173 NetworkWithShapingAndPolicing.R6.ppp[1].ppp txPk:vector(packetBytes) ETV
attr interpolationmode none
attr source packetSentToLower
attr title "packets transmitted, vector(packetBytes)"
vector 174 NetworkWithShapingAndPolicing.R14.ppp[1].ppp rcvdPkFromHl:vector(packetBytes) ETV
attr interpolationmode none
attr source packetReceivedFromUpper
attr title "packets received from higher layer, vector(packetBytes)"
vector 175 NetworkWithShapingAndPolicing.R14.ppp[1].ppp.queue packetPushed:vector(packetBytes) ETV
attr interpolationmode none
attr title "packet pushed, vector(packetBytes)"
vector 176 NetworkWithShapingAndPolicing.R14.ppp[1].ppp.queue queueLength:vector ETV
attr interpolationmode sample-hold
attr source "count(packetPushed) - count(packetPopped) - count(packetRemoved) - count(packetDropped)"
attr title "queue length, vector"
vector 177 NetworkWithShapingAndPolicing.R14.ppp[1].ppp.queue packetPopped:vector(packetBytes) ETV
attr interpolationmode none
attr title "packet popped, vector(packetBytes)"
vector 178 NetworkWithShapingAndPolicing.R14.ppp[1].ppp.queue queueingTime:vector ETV
attr interpolationmode none
attr source queueingTime(packetPopped)
attr title "queueing times, vector"
attr unit s
vector 179 NetworkWithShapingAndPolicing.R14.ppp[1].ppp txPk:vector(packetBytes) ETV
attr interpolationmode none
attr source packetSentToLower
attr title "packets transmitted, vector(packetBytes)"
vector 180 NetworkWithShapingAndPolicing.R7.ppp[1].ppp rcvdPkFromHl:vector(packetBytes) ETV
attr interpolationmode none
attr source packetReceivedFromUpper
attr title "packets received from higher layer, vector(packetBytes)"
vector 181 NetworkWithShapingAndPolicing.R7.ppp[1].ppp.queue packetPushed:vector(packetBytes) ETV
attr interpolationmode none
attr title "packet pushed, vector(packetBytes)"
vector 182 NetworkWithShapingAndPolicing.R7.ppp[1].ppp.queue queueLength:vector ETV
attr interpolationmode sample-hold
attr source "count(packetPushed) - count(packetPopped) - count(packetRemoved) - count(packetDropped)"
attr title "queue length, vector"
vector 183 NetworkWithShapingAndPolicing.R7.ppp[1].ppp.queue packetPopped:vector(packetBytes) ETV
attr interpolationmode none
attr title "packet popped, vector(packetBytes)"
vector 184 NetworkWithShapingAndPolicing.R7.ppp[1].ppp.queue queueingTime:vector ETV
attr interpolationmode none
attr source queueingTime(packetPopped)
attr title "queueing times, vector"
attr unit s
vector 185 NetworkWithShapingAndPolicing.R7.ppp[1].ppp txPk:vector(packetBytes) ETV
attr interpolationmode none
attr source packetSentToLower
attr title "packets transmitted, vector(packetBytes)"
vector 186 NetworkWithShapingAndPolicing.R9.ppp[0].ppp rcvdPkFromHl:vector(packetBytes) ETV
attr interpolationmode none
attr source packetReceivedFromUpper
attr title "packets received from higher layer, vector(packetBytes)"
vector 187 NetworkWithShapingAndPolicing.R9.ppp[0].ppp.queue packetPushed:vector(packetBytes) ETV
attr interpolationmode none
attr title "packet pushed, vector(packetBytes)"
vector 188 NetworkWithShapingAndPolicing.R9.ppp[0].ppp.queue queueLength:vector ETV
attr interpolationmode sample-hold
attr source "count(packetPushed) - count(packetPopped) - count(packetRemoved) - count(packetDropped)"
attr title "queue length, vector"
vector 189 NetworkWithShapingAndPolicing.R9.ppp[0].ppp.queue packetPopped:vector(packetBytes) ETV
attr interpolationmode none
attr title "packet popped, vector(packetBytes)"
vector 190 NetworkWithShapingAndPolicing.R9.ppp[0].ppp.queue queueingTime:vector ETV
attr interpolationmode none
attr source queueingTime(packetPopped)
attr title "queueing times, vector"
attr unit s
vector 191 NetworkWithShapingAndPolicing.R9.ppp[0].ppp txPk:vector(packetBytes) ETV
attr interpolationmode none
attr source packetSentToLower
attr title "packets transmitted, vector(packetBytes)"
vector 192 NetworkWithShapingAndPolicing.R8.ppp[2].ppp rcvdPkFromHl:vector(packetBytes) ETV
attr interpolationmode none
attr source packetReceivedFromUpper
attr title "packets received from higher layer, vector(packetBytes)"
vector 193 NetworkWithShapingAndPolicing.R8.ppp[2].ppp.queue packetPushed:vector(packetBytes) ETV
attr interpolationmode none
attr title "packet pushed, vector(packetBytes)"
vector 194 NetworkWithShapingAndPolicing.R8.ppp[2].ppp.queue queueLength:vector ETV
attr interpolationmode sample-hold
attr source "count(packetPushed) - count(packetPopped) - count(packetRemoved) - count(packetDropped)"
attr title "queue length, vector"
vector 195 NetworkWithShapingAndPolicing.R8.ppp[2].ppp.queue packetPopped:vector(packetBytes) ETV
attr interpolationmode none
attr title "packet popped, vector(packetBytes)"
vector 196 NetworkWithShapingAndPolicing.R8.ppp[2].ppp.queue queueingTime:vector ETV
attr interpolationmode none
attr source queueingTime(packetPopped)
attr title "queueing times, vector"
attr unit s
vector 197 NetworkWithShapingAndPolicing.R8.ppp[2].ppp txPk:vector(packetBytes) ETV
attr interpolationmode none
attr source packetSentToLower
attr title "packets transmitted, vector(packetBytes)"
vector 198 NetworkWithShapingAndPolicing.R9.ppp[3].ppp rcvdPkFromHl:vector(packetBytes) ETV
attr interpolationmode none
attr source packetReceivedFromUpper
attr title "packets received from higher layer, vector(packetBytes)"
vector 199 NetworkWithShapingAndPolicing.R9.ppp[3].ppp.queue packetPushed:vector(packetBytes) ETV
attr interpolationmode none
attr title "packet pushed, vector(packetBytes)"
vector 200 NetworkWithShapingAndPolicing.R9.ppp[3].ppp.queue queueLength:vector ETV
attr interpolationmode sample-hold
attr source "count(packetPushed) - count(packetPopped) - count(packetRemoved) - count(packetDropped)"
attr title "queue length, vector"
vector 201 NetworkWithShapingAndPolicing.R9.ppp[3].ppp.queue packetPopped:vector(packetBytes) ETV
attr interpolationmode none
attr title "packet popped, vector(packetBytes)"
vector 202 NetworkWithShapingAndPolicing.R9.ppp[3].ppp.queue queueingTime:vector ETV
attr interpolationmode none
attr source queueingTime(packetPopped)
attr title "queueing times, vector"
attr unit s
vector 203 NetworkWithShapingAndPolicing.R9.ppp[3].ppp txPk:vector(packetBytes) ETV
attr interpolationmode none
attr source packetSentToLower
attr title "packets transmitted, vector(packetBytes)"
vector 204 NetworkWithShapingAndPolicing.R8.ppp[0].ppp rcvdPkFromHl:vector(packetBytes) ETV
attr interpolationmode none
attr source packetReceivedFromUpper
attr title "packets received from higher layer, vector(packetBytes)"
vector 205 NetworkWithShapingAndPolicing.R8.ppp[0].ppp.queue packetPushed:vector(packetBytes) ETV
attr interpolationmode none
attr title "packet pushed, vector(packetBytes)"
vector 206 NetworkWithShapingAndPolicing.R8.ppp[0].ppp.queue queueLength:vector ETV
attr interpolationmode sample-hold
attr source "count(packetPushed) - count(packetPopped) - count(packetRemoved) - count(packetDropped)"
attr title "queue length, vector"
vector 207 NetworkWithShapingAndPolicing.R8.ppp[0].ppp.queue packetPopped:vector(packetBytes) ETV
attr interpolationmode none
attr title "packet popped, vector(packetBytes)"
vector 208 NetworkWithShapingAndPolicing.R8.ppp[0].ppp.queue queueingTime:vector ETV
attr interpolationmode none
attr source queueingTime(packetPopped)
attr title "queueing times, vector"
attr unit s
vector 209 NetworkWithShapingAndPolicing.R8.ppp[0].ppp txPk:vector(packetBytes) ETV
attr interpolationmode none
attr source packetSentToLower
attr title "packets transmitted, vector(packetBytes)"
vector 210 NetworkWithShapingAndPolicing.R15.ppp[1].ppp rcvdPkFromHl:vector(packetBytes) ETV
attr interpolationmode none
attr source packetReceivedFromUpper
attr title "packets received from higher layer, vector(packetBytes)"
vector 211 NetworkWithShapingAndPolicing.R15.ppp[1].ppp.queue packetPushed:vector(packetBytes) ETV
attr interpolationmode none
attr title "packet pushed, vector(packetBytes)"
vector 212 NetworkWithShapingAndPolicing.R15.ppp[1].ppp.queue queueLength:vector ETV
attr interpolationmode sample-hold
attr source "count(packetPushed) - count(packetPopped) - count(packetRemoved) - count(packetDropped)"
attr title "queue length, vector"
vector 213 NetworkWithShapingAndPolicing.R15.ppp[1].ppp.queue packetPopped:vector(packetBytes) ETV
attr interpolationmode none
attr title "packet popped, vector(packetBytes)"
vector 214 NetworkWithShapingAndPolicing.R15.ppp[1].ppp.queue queueingTime:vector ETV
attr interpolationmode none
attr source queueingTime(packetPopped)
attr title "queueing times, vector"
attr unit s
vector 215 NetworkWithShapingAndPolicing.R15.ppp[1].ppp txPk:vector(packetBytes) ETV
attr interpolationmode none
attr source packetSentToLower
attr title "packets transmitted, vector(packetBytes)"
vector 216 NetworkWithShapingAndPolicing.R14.ppp[0].ppp rcvdPkFromHl:vector(packetBytes) ETV
attr interpolationmode none
attr source packetReceivedFromUpper
attr title "packets received from higher layer, vector(packetBytes)"
vector 217 NetworkWithShapingAndPolicing.R14.ppp[0].ppp.queue packetPushed:vector(packetBytes) ETV
attr interpolationmode none
attr title "packet pushed, vector(packetBytes)"
vector 218 NetworkWithShapingAndPolicing.R14.ppp[0].ppp.queue queueLength:vector ETV
attr interpolationmode sample-hold
attr source "count(packetPushed) - count(packetPopped) - count(packetRemoved) - count(packetDropped)"
attr title "queue length, vector"
vector 219 NetworkWithShapingAndPolicing.R14.ppp[0].ppp.queue packetPopped:vector(packetBytes) ETV
attr interpolationmode none
attr title "packet popped, vector(packetBytes)"
vector 220 NetworkWithShapingAndPolicing.R14.ppp[0].ppp.queue queueingTime:vector ETV
attr interpolationmode none
attr source queueingTime(packetPopped)
attr title "queueing times, vector"
attr unit s
vector 221 NetworkWithShapingAndPolicing.R14.ppp[0].ppp txPk:vector(packetBytes) ETV
attr interpolationmode none
attr source packetSentToLower
attr title "packets transmitted, vector(packetBytes)"
vector 222 NetworkWithShapingAndPolicing.R12.ppp[1].ppp rcvdPkFromHl:vector(packetBytes) ETV
attr interpolationmode none
attr source packetReceivedFromUpper
attr title "packets received from higher layer, vector(packetBytes)"
vector 223 NetworkWithShapingAndPolicing.R12.ppp[1].ppp.queue packetPushed:vector(packetBytes) ETV
attr interpolationmode none
attr title "packet pushed, vector(packetBytes)"
vector 224 NetworkWithShapingAndPolicing.R12.ppp[1].ppp.queue queueLength:vector ETV
attr interpolationmode sample-hold
attr source "count(packetPushed) - count(packetPopped) - count(packetRemoved) - count(packetDropped)"
attr title "queue length, vector"
vector 225 NetworkWithShapingAndPolicing.R12.ppp[1].ppp.queue packetPopped:vector(packetBytes) ETV
attr interpolationmode none
attr title "packet popped, vector(packetBytes)"
vector 226 NetworkWithShapingAndPolicing.R12.ppp[1].ppp.queue queueingTime:vector ETV
attr interpolationmode none
attr source queueingTime(packetPopped)
attr title "queueing times, vector"
attr unit s
vector 227 NetworkWithShapingAndPolicing.R12.ppp[1].ppp txPk:vector(packetBytes) ETV
attr interpolationmode none
attr source packetSentToLower
attr title "packets transmitted, vector(packetBytes)"
vector 228 NetworkWithShapingAndPolicing.R4.ppp[1].ppp rcvdPkFromHl:vector(packetBytes) ETV
attr interpolationmode none
attr source packetReceivedFromUpper
attr title "packets received from higher layer, vector(packetBytes)"
vector 229 NetworkWithShapingAndPolicing.R4.ppp[1].ppp.queue packetPushed:vector(packetBytes) ETV
attr interpolationmode none
attr title "packet pushed, vector(packetBytes)"
vector 230 NetworkWithShapingAndPolicing.R4.ppp[1].ppp.queue queueLength:vector ETV
attr interpolationmode sample-hold
attr source "count(packetPushed) - count(packetPopped) - count(packetRemoved) - count(packetDropped)"
attr title "queue length, vector"
vector 231 NetworkWithShapingAndPolicing.R4.ppp[1].ppp.queue packetPopped:vector(packetBytes) ETV
attr interpolationmode none
attr title "packet popped, vector(packetBytes)"
vector 232 NetworkWithShapingAndPolicing.R4.ppp[1].ppp.queue queueingTime:vector ETV
attr interpolationmode none
attr source queueingTime(packetPopped)
attr title "queueing times, vector"
attr unit s
vector 233 NetworkWithShapingAndPolicing.R4.ppp[1].ppp txPk:vector(packetBytes) ETV
attr interpolationmode none
attr source packetSentToLower
attr title "packets transmitted, vector(packetBytes)"
vector 234 NetworkWithShapingAndPolicing.R1.eth[0].encap encapPk:vector(packetBytes) ETV
attr interpolationmode none
attr source encapPk
attr title "packets encapsulated, vector(packetBytes)"
vector 235 NetworkWithShapingAndPolicing.R1.eth[0].mac packetReceivedFromUpper:vector(packetBytes) ETV
attr interpolationmode none
attr source packetReceivedFromUpper
attr title "packet bytes from higher layer, vector(packetBytes)"
vector 236 NetworkWithShapingAndPolicing.R1.eth[0].mac.queue packetPushed:vector(packetBytes) ETV
attr interpolationmode none
attr source localSignal(packetPushed)
attr title "packets pushed, vector(packetBytes)"
vector 237 NetworkWithShapingAndPolicing.R1.eth[0].mac.queue queueLength:vector ETV
attr interpolationmode sample-hold
attr source "count(localSignal(packetPushed)) - count(localSignal(packetPopped)) - count(localSignal(packetRemoved)) - count(packetDropped)"
attr title "queue length, vector"
vector 238 NetworkWithShapingAndPolicing.R1.eth[0].mac.queue.classifier packetPushed:vector(packetBytes) ETV
attr interpolationmode none
attr title "packets pushed, vector(packetBytes)"
vector 239 NetworkWithShapingAndPolicing.R1.eth[0].mac.queue.dataQueue packetPushed:vector(packetBytes) ETV
attr interpolationmode none
attr title "packet pushed, vector(packetBytes)"
vector 240 NetworkWithShapingAndPolicing.R1.eth[0].mac.queue.dataQueue queueLength:vector ETV
attr interpolationmode sample-hold
attr source "count(packetPushed) - count(packetPopped) - count(packetRemoved) - count(packetDropped)"
attr title "queue length, vector"
vector 241 NetworkWithShapingAndPolicing.R1.eth[0].mac.queue.dataQueue packetPopped:vector(packetBytes) ETV
attr interpolationmode none
attr title "packet popped, vector(packetBytes)"
vector 242 NetworkWithShapingAndPolicing.R1.eth[0].mac.queue.dataQueue queueingTime:vector ETV
attr interpolationmode none
attr source queueingTime(packetPopped)
attr title "queueing times, vector"
attr unit s
vector 243 NetworkWithShapingAndPolicing.R1.eth[0].mac.queue queueingTime:vector ETV
attr interpolationmode none
attr source queueingTime(packetPopped)
attr title "queueing times, vector"
attr unit s
vector 244 NetworkWithShapingAndPolicing.R1.eth[0].mac.queue.scheduler packetPopped:vector(packetBytes) ETV
attr interpolationmode none
attr title "packets popped, vector(packetBytes)"
vector 245 NetworkWithShapingAndPolicing.R1.eth[0].mac.queue packetPopped:vector(packetBytes) ETV
attr interpolationmode none
attr source localSignal(packetPopped)
attr title "packets popped, vector(packetBytes)"
vector 246 NetworkWithShapingAndPolicing.R1.eth[0].mac txPk:vector(packetBytes) ETV
attr interpolationmode none
attr source packetSentToLower
attr title "packets transmitted, vector(packetBytes)"
vector 247 NetworkWithShapingAndPolicing.H1.eth[0].mac rxPkOk:vector(packetBytes) ETV
attr interpolationmode none
attr source rxPkOk
attr title "packets received OK, vector(packetBytes)"
vector 248 NetworkWithShapingAndPolicing.H1.eth[0].mac passedUpPk:vector(packetBytes) ETV
attr interpolationmode none
attr source packetSentToUpper
attr title "packets passed to higher layer, vector(packetBytes)"
vector 249 NetworkWithShapingAndPolicing.H1.eth[0].encap decapPk:vector(packetBytes) ETV
attr interpolationmode none
attr source decapPk
attr title "packets decapsulated, vector(packetBytes)"
vector 250 NetworkWithShapingAndPolicing.R4.ppp[1].ppp rxPkOk:vector(packetBytes) ETV
attr interpolationmode none
attr source rxPkOk
attr title "packets received OK, vector(packetBytes)"
vector 251 NetworkWithShapingAndPolicing.R4.ppp[1].ppp passedUpPk:vector(packetBytes) ETV
attr interpolationmode none
attr source packetSentToUpper
attr title "packets passed to higher layer, vector(packetBytes)"
vector 252 NetworkWithShapingAndPolicing.R15.ppp[0].ppp rcvdPkFromHl:vector(packetBytes) ETV
attr interpolationmode none
attr source packetReceivedFromUpper
attr title "packets received from higher layer, vector(packetBytes)"
vector 253 NetworkWithShapingAndPolicing.R15.ppp[0].ppp.queue packetPushed:vector(packetBytes) ETV
attr interpolationmode none
attr title "packet pushed, vector(packetBytes)"
vector 254 NetworkWithShapingAndPolicing.R15.ppp[0].ppp.queue queueLength:vector ETV
attr interpolationmode sample-hold
attr source "count(packetPushed) - count(packetPopped) - count(packetRemoved) - count(packetDropped)"
attr title "queue length, vector"
vector 255 NetworkWithShapingAndPolicing.R15.ppp[0].ppp.queue packetPopped:vector(packetBytes) ETV
attr interpolationmode none
attr title "packet popped, vector(packetBytes)"
vector 256 NetworkWithShapingAndPolicing.R15.ppp[0].ppp.queue queueingTime:vector ETV
attr interpolationmode none
attr source queueingTime(packetPopped)
attr title "queueing times, vector"
attr unit s
vector 257 NetworkWithShapingAndPolicing.R15.ppp[0].ppp txPk:vector(packetBytes) ETV
attr interpolationmode none
attr source packetSentToLower
attr title "packets transmitted, vector(packetBytes)"
vector 258 NetworkWithShapingAndPolicing.R1.ppp[1].ppp rcvdPkFromHl:vector(packetBytes) ETV
attr interpolationmode none
attr source packetReceivedFromUpper
attr title "packets received from higher layer, vector(packetBytes)"
vector 259 NetworkWithShapingAndPolicing.R1.ppp[1].ppp.queue packetPushed:vector(packetBytes) ETV
attr interpolationmode none
attr title "packet pushed, vector(packetBytes)"
vector 260 NetworkWithShapingAndPolicing.R1.ppp[1].ppp.queue queueLength:vector ETV
attr interpolationmode sample-hold
attr source "count(packetPushed) - count(packetPopped) - count(packetRemoved) - count(packetDropped)"
attr title "queue length, vector"
vector 261 NetworkWithShapingAndPolicing.R1.ppp[1].ppp.queue packetPopped:vector(packetBytes) ETV
attr interpolationmode none
attr title "packet popped, vector(packetBytes)"
vector 262 NetworkWithShapingAndPolicing.R1.ppp[1].ppp.queue queueingTime:vector ETV
attr interpolationmode none
attr source queueingTime(packetPopped)
attr title "queueing times, vector"
attr unit s
vector 263 NetworkWithShapingAndPolicing.R1.ppp[1].ppp txPk:vector(packetBytes) ETV
attr interpolationmode none
attr source packetSentToLower
attr title "packets transmitted, vector(packetBytes)"
vector 264 NetworkWithShapingAndPolicing.R8.ppp[1].ppp rcvdPkFromHl:vector(packetBytes) ETV
attr interpolationmode none
attr source packetReceivedFromUpper
attr title "packets received from higher layer, vector(packetBytes)"
vector 265 NetworkWithShapingAndPolicing.R8.ppp[1].ppp.queue packetPushed:vector(packetBytes) ETV
attr interpolationmode none
attr title "packet pushed, vector(packetBytes)"
vector 266 NetworkWithShapingAndPolicing.R8.ppp[1].ppp.queue queueLength:vector ETV
attr interpolationmode sample-hold
attr source "count(packetPushed) - count(packetPopped) - count(packetRemoved) - count(packetDropped)"
attr title "queue length, vector"
vector 267 NetworkWithShapingAndPolicing.R8.ppp[1].ppp.queue packetPopped:vector(packetBytes) ETV
attr interpolationmode none
attr title "packet popped, vector(packetBytes)"
vector 268 NetworkWithShapingAndPolicing.R8.ppp[1].ppp.queue queueingTime:vector ETV
attr interpolationmode none
attr source queueingTime(packetPopped)
attr title "queueing times, vector"
attr unit s
vector 269 NetworkWithShapingAndPolicing.R8.ppp[1].ppp txPk:vector(packetBytes) ETV
attr interpolationmode none
attr source packetSentToLower
attr title "packets transmitted, vector(packetBytes)"
vector 270 NetworkWithShapingAndPolicing.R15.ppp[0].ppp rxPkOk:vector(packetBytes) ETV
attr interpolationmode none
attr source rxPkOk
attr title "packets received OK, vector(packetBytes)"
vector 271 NetworkWithShapingAndPolicing.R15.ppp[0].ppp passedUpPk:vector(packetBytes) ETV
attr interpolationmode none
attr source packetSentToUpper
attr title "packets passed to higher layer, vector(packetBytes)"
vector 272 NetworkWithShapingAndPolicing.R1.ppp[0].ppp rcvdPkFromHl:vector(packetBytes) ETV
attr interpolationmode none
attr source packetReceivedFromUpper
attr title "packets received from higher layer, vector(packetBytes)"
vector 273 NetworkWithShapingAndPolicing.R1.ppp[0].ppp.queue packetPushed:vector(packetBytes) ETV
attr interpolationmode none
attr title "packet pushed, vector(packetBytes)"
vector 274 NetworkWithShapingAndPolicing.R1.ppp[0].ppp.queue queueLength:vector ETV
attr interpolationmode sample-hold
attr source "count(packetPushed) - count(packetPopped) - count(packetRemoved) - count(packetDropped)"
attr title "queue length, vector"
vector 275 NetworkWithShapingAndPolicing.R1.ppp[0].ppp.queue packetPopped:vector(packetBytes) ETV
attr interpolationmode none
attr title "packet popped, vector(packetBytes)"
vector 276 NetworkWithShapingAndPolicing.R1.ppp[0].ppp.queue queueingTime:vector ETV
attr interpolationmode none
attr source queueingTime(packetPopped)
attr title "queueing times, vector"
attr unit s
vector 277 NetworkWithShapingAndPolicing.R1.ppp[0].ppp txPk:vector(packetBytes) ETV
attr interpolationmode none
attr source packetSentToLower
attr title "packets transmitted, vector(packetBytes)"
vector 278 NetworkWithShapingAndPolicing.R3.ppp[0].ppp rxPkOk:vector(packetBytes) ETV
attr interpolationmode none
attr source rxPkOk
attr title "packets received OK, vector(packetBytes)"
vector 279 NetworkWithShapingAndPolicing.R3.ppp[0].ppp passedUpPk:vector(packetBytes) ETV
attr interpolationmode none
attr source packetSentToUpper
attr title "packets passed to higher layer, vector(packetBytes)"
vector 280 NetworkWithShapingAndPolicing.R10.ppp[0].ppp rcvdPkFromHl:vector(packetBytes) ETV
attr interpolationmode none
attr source packetReceivedFromUpper
attr title "packets received from higher layer, vector(packetBytes)"
vector 281 NetworkWithShapingAndPolicing.R10.ppp[0].ppp.queue packetPushed:vector(packetBytes) ETV
attr interpolationmode none
attr title "packet pushed, vector(packetBytes)"
vector 282 NetworkWithShapingAndPolicing.R10.ppp[0].ppp.queue queueLength:vector ETV
attr interpolationmode sample-hold
attr source "count(packetPushed) - count(packetPopped) - count(packetRemoved) - count(packetDropped)"
attr title "queue length, vector"
vector 283 NetworkWithShapingAndPolicing.R10.ppp[0].ppp.queue packetPopped:vector(packetBytes) ETV
attr interpolationmode none
attr title "packet popped, vector(packetBytes)"
vector 284 NetworkWithShapingAndPolicing.R10.ppp[0].ppp.queue queueingTime:vector ETV
attr interpolationmode none
attr source queueingTime(packetPopped)
attr title "queueing times, vector"
attr unit s
vector 285 NetworkWithShapingAndPolicing.R10.ppp[0].ppp txPk:vector(packetBytes) ETV
attr interpolationmode none
attr source packetSentToLower
attr title "packets transmitted, vector(packetBytes)"
vector 286 NetworkWithShapingAndPolicing.R1.ppp[0].ppp rxPkOk:vector(packetBytes) ETV
attr interpolationmode none
attr source rxPkOk
attr title "packets received OK, vector(packetBytes)"
vector 287 NetworkWithShapingAndPolicing.R1.ppp[0].ppp passedUpPk:vector(packetBytes) ETV
attr interpolationmode none
attr source packetSentToUpper
attr title "packets passed to higher layer, vector(packetBytes)"
vector 288 NetworkWithShapingAndPolicing.R11.ppp[0].ppp rcvdPkFromHl:vector(packetBytes) ETV
attr interpolationmode none
attr source packetReceivedFromUpper
attr title "packets received from higher layer, vector(packetBytes)"
vector 289 NetworkWithShapingAndPolicing.R11.ppp[0].ppp.queue packetPushed:vector(packetBytes) ETV
attr interpolationmode none
attr title "packet pushed, vector(packetBytes)"
vector 290 NetworkWithShapingAndPolicing.R11.ppp[0].ppp.queue queueLength:vector ETV
attr interpolationmode sample-hold
attr source "count(packetPushed) - count(packetPopped) - count(packetRemoved) - count(packetDropped)"
attr title "queue length, vector"
vector 291 NetworkWithShapingAndPolicing.R11.ppp[0].ppp.queue packetPopped:vector(packetBytes) ETV
attr interpolationmode none
attr title "packet popped, vector(packetBytes)"
vector 292 NetworkWithShapingAndPolicing.R11.ppp[0].ppp.queue queueingTime:vector ETV
attr interpolationmode none
attr source queueingTime(packetPopped)
attr title "queueing times, vector"
attr unit s
vector 293 NetworkWithShapingAndPolicing.R11.ppp[0].ppp txPk:vector(packetBytes) ETV
attr interpolationmode none
attr source packetSentToLower
attr title "packets transmitted, vector(packetBytes)"
vector 294 NetworkWithShapingAndPolicing.R6.ppp[0].ppp rcvdPkFromHl:vector(packetBytes) ETV
attr interpolationmode none
attr source packetReceivedFromUpper
attr title "packets received from higher layer, vector(packetBytes)"
vector 295 NetworkWithShapingAndPolicing.R6.ppp[0].ppp.queue packetPushed:vector(packetBytes) ETV
attr interpolationmode none
attr title "packet pushed, vector(packetBytes)"
vector 296 NetworkWithShapingAndPolicing.R6.ppp[0].ppp.queue queueLength:vector ETV
attr interpolationmode sample-hold
attr source "count(packetPushed) - count(packetPopped) - count(packetRemoved) - count(packetDropped)"
attr title "queue length, vector"
vector 297 NetworkWithShapingAndPolicing.R6.ppp[0].ppp.queue packetPopped:vector(packetBytes) ETV
attr interpolationmode none
attr title "packet popped, vector(packetBytes)"
vector 298 NetworkWithShapingAndPolicing.R6.ppp[0].ppp.queue queueingTime:vector ETV
attr interpolationmode none
attr source queueingTime(packetPopped)
attr title "queueing times, vector"
attr unit s
vector 299 NetworkWithShapingAndPolicing.R6.ppp[0].ppp txPk:vector(packetBytes) ETV
attr interpolationmode none
attr source packetSentToLower
attr title "packets transmitted, vector(packetBytes)"
vector 300 NetworkWithShapingAndPolicing.R11.ppp[0].ppp rxPkOk:vector(packetBytes) ETV
attr interpolationmode none
attr source rxPkOk
attr title "packets received OK, vector(packetBytes)"
vector 301 NetworkWithShapingAndPolicing.R11.ppp[0].ppp passedUpPk:vector(packetBytes) ETV
attr interpolationmode none
attr source packetSentToUpper
attr title "packets passed to higher layer, vector(packetBytes)"
vector 302 NetworkWithShapingAndPolicing.R1.ppp[1].ppp rxPkOk:vector(packetBytes) ETV
attr interpolationmode none
attr source rxPkOk
attr title "packets received OK, vector(packetBytes)"
vector 303 NetworkWithShapingAndPolicing.R1.ppp[1].ppp passedUpPk:vector(packetBytes) ETV
attr interpolationmode none
attr source packetSentToUpper
attr title "packets passed to higher layer, vector(packetBytes)"
vector 304 NetworkWithShapingAndPolicing.R11.ppp[1].ppp rcvdPkFromHl:vector(packetBytes) ETV
attr interpolationmode none
attr source packetReceivedFromUpper
attr title "packets received from higher layer, vector(packetBytes)"
vector 305 NetworkWithShapingAndPolicing.R11.ppp[1].ppp.queue packetPushed:vector(packetBytes) ETV
attr interpolationmode none
attr title "packet pushed, vector(packetBytes)"
vector 306 NetworkWithShapingAndPolicing.R11.ppp[1].ppp.queue queueLength:vector ETV
attr interpolationmode sample-hold
attr source "count(packetPushed) - count(packetPopped) - count(packetRemoved) - count(packetDropped)"
attr title "queue length, vector"
vector 307 NetworkWithShapingAndPolicing.R11.ppp[1].ppp.queue packetPopped:vector(packetBytes) ETV
attr interpolationmode none
attr title "packet popped, vector(packetBytes)"
vector 308 NetworkWithShapingAndPolicing.R11.ppp[1].ppp.queue queueingTime:vector ETV
attr interpolationmode none
attr source queueingTime(packetPopped)
attr title "queueing times, vector"
attr unit s
vector 309 NetworkWithShapingAndPolicing.R11.ppp[1].ppp txPk:vector(packetBytes) ETV
attr interpolationmode none
attr source packetSentToLower
attr title "packets transmitted, vector(packetBytes)"
vector 310 NetworkWithShapingAndPolicing.R6.ppp[0].ppp rxPkOk:vector(packetBytes) ETV
attr interpolationmode none
attr source rxPkOk
attr title "packets received OK, vector(packetBytes)"
vector 311 NetworkWithShapingAndPolicing.R6.ppp[0].ppp passedUpPk:vector(packetBytes) ETV
attr interpolationmode none
attr source packetSentToUpper
attr title "packets passed to higher layer, vector(packetBytes)"
vector 312 NetworkWithShapingAndPolicing.R8.ppp[0].ppp rxPkOk:vector(packetBytes) ETV
attr interpolationmode none
attr source rxPkOk
attr title "packets received OK, vector(packetBytes)"
vector 313 NetworkWithShapingAndPolicing.R8.ppp[0].ppp passedUpPk:vector(packetBytes) ETV
attr interpolationmode none
attr source packetSentToUpper
attr title "packets passed to higher layer, vector(packetBytes)"
vector 314 NetworkWithShapingAndPolicing.R7.ppp[2].ppp rcvdPkFromHl:vector(packetBytes) ETV
attr interpolationmode none
attr source packetReceivedFromUpper
attr title "packets received from higher layer, vector(packetBytes)"
vector 315 NetworkWithShapingAndPolicing.R7.ppp[2].ppp.queue packetPushed:vector(packetBytes) ETV
attr interpolationmode none
attr title "packet pushed, vector(packetBytes)"
vector 316 NetworkWithShapingAndPolicing.R7.ppp[2].ppp.queue queueLength:vector ETV
attr interpolationmode sample-hold
attr source "count(packetPushed) - count(packetPopped) - count(packetRemoved) - count(packetDropped)"
attr title "queue length, vector"
vector 317 NetworkWithShapingAndPolicing.R7.ppp[2].ppp.queue packetPopped:vector(packetBytes) ETV
attr interpolationmode none
attr title "packet popped, vector(packetBytes)"
vector 318 NetworkWithShapingAndPolicing.R7.ppp[2].ppp.queue queueingTime:vector ETV
attr interpolationmode none
attr source queueingTime(packetPopped)
attr title "queueing times, vector"
attr unit s
vector 319 NetworkWithShapingAndPolicing.R7.ppp[2].ppp txPk:vector(packetBytes) ETV
attr interpolationmode none
attr source packetSentToLower
attr title "packets transmitted, vector(packetBytes)"
vector 320 NetworkWithShapingAndPolicing.R15.eth[0].encap encapPk:vector(packetBytes) ETV
attr interpolationmode none
attr source encapPk
attr title "packets encapsulated, vector(packetBytes)"
vector 321 NetworkWithShapingAndPolicing.R15.eth[0].mac packetReceivedFromUpper:vector(packetBytes) ETV
attr interpolationmode none
attr source packetReceivedFromUpper
attr title "packet bytes from higher layer, vector(packetBytes)"
vector 322 NetworkWithShapingAndPolicing.R15.eth[0].mac.queue packetPushed:vector(packetBytes) ETV
attr interpolationmode none
attr source localSignal(packetPushed)
attr title "packets pushed, vector(packetBytes)"
vector 323 NetworkWithShapingAndPolicing.R15.eth[0].mac.queue queueLength:vector ETV
attr interpolationmode sample-hold
attr source "count(localSignal(packetPushed)) - count(localSignal(packetPopped)) - count(localSignal(packetRemoved)) - count(packetDropped)"
attr title "queue length, vector"
vector 324 NetworkWithShapingAndPolicing.R15.eth[0].mac.queue.classifier packetPushed:vector(packetBytes) ETV
attr interpolationmode none
attr title "packets pushed, vector(packetBytes)"
vector 325 NetworkWithShapingAndPolicing.R15.eth[0].mac.queue.dataQueue packetPushed:vector(packetBytes) ETV
attr interpolationmode none
attr title "packet pushed, vector(packetBytes)"
vector 326 NetworkWithShapingAndPolicing.R15.eth[0].mac.queue.dataQueue queueLength:vector ETV
attr interpolationmode sample-hold
attr source "count(packetPushed) - count(packetPopped) - count(packetRemoved) - count(packetDropped)"
attr title "queue length, vector"
vector 327 NetworkWithShapingAndPolicing.R15.eth[0].mac.queue.dataQueue packetPopped:vector(packetBytes) ETV
attr interpolationmode none
attr title "packet popped, vector(packetBytes)"
vector 328 NetworkWithShapingAndPolicing.R15.eth[0].mac.queue.dataQueue queueingTime:vector ETV
attr interpolationmode none
attr source queueingTime(packetPopped)
attr title "queueing times, vector"
attr unit s
vector 329 NetworkWithShapingAndPolicing.R15.eth[0].mac.queue queueingTime:vector ETV
attr interpolationmode none
attr source queueingTime(packetPopped)
attr title "queueing times, vector"
attr unit s
vector 330 NetworkWithShapingAndPolicing.R15.eth[0].mac.queue.scheduler packetPopped:vector(packetBytes) ETV
attr interpolationmode none
attr title "packets popped, vector(packetBytes)"
vector 331 NetworkWithShapingAndPolicing.R15.eth[0].mac.queue packetPopped:vector(packetBytes) ETV
attr interpolationmode none
attr source localSignal(packetPopped)
attr title "packets popped, vector(packetBytes)"
vector 332 NetworkWithShapingAndPolicing.R15.eth[0].mac txPk:vector(packetBytes) ETV
attr interpolationmode none
attr source packetSentToLower
attr title "packets transmitted, vector(packetBytes)"
vector 333 NetworkWithShapingAndPolicing.H2.eth[0].mac rxPkOk:vector(packetBytes) ETV
attr interpolationmode none
attr source rxPkOk
attr title "packets received OK, vector(packetBytes)"
vector 334 NetworkWithShapingAndPolicing.H2.eth[0].mac passedUpPk:vector(packetBytes) ETV
attr interpolationmode none
attr source packetSentToUpper
attr title "packets passed to higher layer, vector(packetBytes)"
vector 335 NetworkWithShapingAndPolicing.H2.eth[0].encap decapPk:vector(packetBytes) ETV
attr interpolationmode none
attr source decapPk
attr title "packets decapsulated, vector(packetBytes)"
vector 336 NetworkWithShapingAndPolicing.R3.ppp[0].ppp rcvdPkFromHl:vector(packetBytes) ETV
attr interpolationmode none
attr source packetReceivedFromUpper
attr title "packets received from higher layer, vector(packetBytes)"
vector 337 NetworkWithShapingAndPolicing.R3.ppp[0].ppp.queue packetPushed:vector(packetBytes) ETV
attr interpolationmode none
attr title "packet pushed, vector(packetBytes)"
vector 338 NetworkWithShapingAndPolicing.R3.ppp[0].ppp.queue queueLength:vector ETV
attr interpolationmode sample-hold
attr source "count(packetPushed) - count(packetPopped) - count(packetRemoved) - count(packetDropped)"
attr title "queue length, vector"
vector 339 NetworkWithShapingAndPolicing.R3.ppp[0].ppp.queue packetPopped:vector(packetBytes) ETV
attr interpolationmode none
attr title "packet popped, vector(packetBytes)"
vector 340 NetworkWithShapingAndPolicing.R3.ppp[0].ppp.queue queueingTime:vector ETV
attr interpolationmode none
attr source queueingTime(packetPopped)
attr title "queueing times, vector"
attr unit s
vector 341 NetworkWithShapingAndPolicing.R3.ppp[0].ppp txPk:vector(packetBytes) ETV
attr interpolationmode none
attr source packetSentToLower
attr title "packets transmitted, vector(packetBytes)"
vector 342 NetworkWithShapingAndPolicing.R7.ppp[0].ppp rxPkOk:vector(packetBytes) ETV
attr interpolationmode none
attr source rxPkOk
attr title "packets received OK, vector(packetBytes)"
vector 343 NetworkWithShapingAndPolicing.R7.ppp[0].ppp passedUpPk:vector(packetBytes) ETV
attr interpolationmode none
attr source packetSentToUpper
attr title "packets passed to higher layer, vector(packetBytes)"
vector 344 NetworkWithShapingAndPolicing.R12.ppp[0].ppp rxPkOk:vector(packetBytes) ETV
attr interpolationmode none
attr source rxPkOk
attr title "packets received OK, vector(packetBytes)"
vector 345 NetworkWithShapingAndPolicing.R12.ppp[0].ppp passedUpPk:vector(packetBytes) ETV
attr interpolationmode none
attr source packetSentToUpper
attr title "packets passed to higher layer, vector(packetBytes)"
vector 346 NetworkWithShapingAndPolicing.R12.ppp[1].ppp rxPkOk:vector(packetBytes) ETV
attr interpolationmode none
attr source rxPkOk
attr title "packets received OK, vector(packetBytes)"
vector 347 NetworkWithShapingAndPolicing.R12.ppp[1].ppp passedUpPk:vector(packetBytes) ETV
attr interpolationmode none
attr source packetSentToUpper
attr title "packets passed to higher layer, vector(packetBytes)"
vector 348 NetworkWithShapingAndPolicing.R5.ppp[0].ppp rxPkOk:vector(packetBytes) ETV
attr interpolationmode none
attr source rxPkOk
attr title "packets received OK, vector(packetBytes)"
vector 349 NetworkWithShapingAndPolicing.R5.ppp[0].ppp passedUpPk:vector(packetBytes) ETV
attr interpolationmode none
attr source packetSentToUpper
attr title "packets passed to higher layer, vector(packetBytes)"
vector 350 NetworkWithShapingAndPolicing.R14.ppp[1].ppp rxPkOk:vector(packetBytes) ETV
attr interpolationmode none
attr source rxPkOk
attr title "packets received OK, vector(packetBytes)"
vector 351 NetworkWithShapingAndPolicing.R14.ppp[1].ppp passedUpPk:vector(packetBytes) ETV
attr interpolationmode none
attr source packetSentToUpper
attr title "packets passed to higher layer, vector(packetBytes)"
vector 352 NetworkWithShapingAndPolicing.R14.ppp[0].ppp rxPkOk:vector(packetBytes) ETV
attr interpolationmode none
attr source rxPkOk
attr title "packets received OK, vector(packetBytes)"
vector 353 NetworkWithShapingAndPolicing.R14.ppp[0].ppp passedUpPk:vector(packetBytes) ETV
attr interpolationmode none
attr source packetSentToUpper
attr title "packets passed to higher layer, vector(packetBytes)"
vector 354 NetworkWithShapingAndPolicing.R8.ppp[1].ppp rxPkOk:vector(packetBytes) ETV
attr interpolationmode none
attr source rxPkOk
attr title "packets received OK, vector(packetBytes)"
vector 355 NetworkWithShapingAndPolicing.R8.ppp[1].ppp passedUpPk:vector(packetBytes) ETV
attr interpolationmode none
attr source packetSentToUpper
attr title "packets passed to higher layer, vector(packetBytes)"
vector 356 NetworkWithShapingAndPolicing.R13.ppp[0].ppp rxPkOk:vector(packetBytes) ETV
attr interpolationmode none
attr source rxPkOk
attr title "packets received OK, vector(packetBytes)"
vector 357 NetworkWithShapingAndPolicing.R13.ppp[0].ppp passedUpPk:vector(packetBytes) ETV
attr interpolationmode none
attr source packetSentToUpper
attr title "packets passed to higher layer, vector(packetBytes)"
vector 358 NetworkWithShapingAndPolicing.R2.ppp[0].ppp rxPkOk:vector(packetBytes) ETV
attr interpolationmode none
attr source rxPkOk
attr title "packets received OK, vector(packetBytes)"
vector 359 NetworkWithShapingAndPolicing.R2.ppp[0].ppp passedUpPk:vector(packetBytes) ETV
attr interpolationmode none
attr source packetSentToUpper
attr title "packets passed to higher layer, vector(packetBytes)"
vector 360 NetworkWithShapingAndPolicing.R4.ppp[0].ppp rxPkOk:vector(packetBytes) ETV
attr interpolationmode none
attr source rxPkOk
attr title "packets received OK, vector(packetBytes)"
vector 361 NetworkWithShapingAndPolicing.R4.ppp[0].ppp passedUpPk:vector(packetBytes) ETV
attr interpolationmode none
attr source packetSentToUpper
attr title "packets passed to higher layer, vector(packetBytes)"
vector 362 NetworkWithShapingAndPolicing.R13.ppp[1].ppp rxPkOk:vector(packetBytes) ETV
attr interpolationmode none
attr source rxPkOk
attr title "packets received OK, vector(packetBytes)"
vector 363 NetworkWithShapingAndPolicing.R13.ppp[1].ppp passedUpPk:vector(packetBytes) ETV
attr interpolationmode none
attr source packetSentToUpper
attr title "packets passed to higher layer, vector(packetBytes)"
vector 364 NetworkWithShapingAndPolicing.R3.ppp[1].ppp rxPkOk:vector(packetBytes) ETV
attr interpolationmode none
attr source rxPkOk
attr title "packets received OK, vector(packetBytes)"
vector 365 NetworkWithShapingAndPolicing.R3.ppp[1].ppp passedUpPk:vector(packetBytes) ETV
attr interpolationmode none
attr source packetSentToUpper
attr title "packets passed to higher layer, vector(packetBytes)"
vector 366 NetworkWithShapingAndPolicing.R11.ppp[1].ppp rxPkOk:vector(packetBytes) ETV
attr interpolationmode none
attr source rxPkOk
attr title "packets received OK, vector(packetBytes)"
vector 367 NetworkWithShapingAndPolicing.R11.ppp[1].ppp passedUpPk:vector(packetBytes) ETV
attr interpolationmode none
attr source packetSentToUpper
attr title "packets passed to higher layer, vector(packetBytes)"
vector 368 NetworkWithShapingAndPolicing.R7.ppp[1].ppp rxPkOk:vector(packetBytes) ETV
attr interpolationmode none
attr source rxPkOk
attr title "packets received OK, vector(packetBytes)"
vector 369 NetworkWithShapingAndPolicing.R7.ppp[1].ppp passedUpPk:vector(packetBytes) ETV
attr interpolationmode none
attr source packetSentToUpper
attr title "packets passed to higher layer, vector(packetBytes)"
vector 370 NetworkWithShapingAndPolicing.R7.ppp[2].ppp rxPkOk:vector(packetBytes) ETV
attr interpolationmode none
attr source rxPkOk
attr title "packets received OK, vector(packetBytes)"
vector 371 NetworkWithShapingAndPolicing.R7.ppp[2].ppp passedUpPk:vector(packetBytes) ETV
attr interpolationmode none
attr source packetSentToUpper
attr title "packets passed to higher layer, vector(packetBytes)"
vector 372 NetworkWithShapingAndPolicing.R15.ppp[2].ppp rxPkOk:vector(packetBytes) ETV
attr interpolationmode none
attr source rxPkOk
attr title "packets received OK, vector(packetBytes)"
vector 373 NetworkWithShapingAndPolicing.R15.ppp[2].ppp passedUpPk:vector(packetBytes) ETV
attr interpolationmode none
attr source packetSentToUpper
attr title "packets passed to higher layer, vector(packetBytes)"
vector 374 NetworkWithShapingAndPolicing.R2.ppp[2].ppp rxPkOk:vector(packetBytes) ETV
attr interpolationmode none
attr source rxPkOk
attr title "packets received OK, vector(packetBytes)"
vector 375 NetworkWithShapingAndPolicing.R2.ppp[2].ppp passedUpPk:vector(packetBytes) ETV
attr interpolationmode none
attr source packetSentToUpper
attr title "packets passed to higher layer, vector(packetBytes)"
vector 376 NetworkWithShapingAndPolicing.R8.ppp[2].ppp rxPkOk:vector(packetBytes) ETV
attr interpolationmode none
attr source rxPkOk
attr title "packets received OK, vector(packetBytes)"
vector 377 NetworkWithShapingAndPolicing.R8.ppp[2].ppp passedUpPk:vector(packetBytes) ETV
attr interpolationmode none
attr source packetSentToUpper
attr title "packets passed to higher layer, vector(packetBytes)"
vector 378 NetworkWithShapingAndPolicing.R9.ppp[0].ppp rxPkOk:vector(packetBytes) ETV
attr interpolationmode none
attr source rxPkOk
attr title "packets received OK, vector(packetBytes)"
vector 379 NetworkWithShapingAndPolicing.R9.ppp[0].ppp passedUpPk:vector(packetBytes) ETV
attr interpolationmode none
attr source packetSentToUpper
attr title "packets passed to higher layer, vector(packetBytes)"
vector 380 NetworkWithShapingAndPolicing.R10.ppp[0].ppp rxPkOk:vector(packetBytes) ETV
attr interpolationmode none
attr source rxPkOk
attr title "packets received OK, vector(packetBytes)"
vector 381 NetworkWithShapingAndPolicing.R10.ppp[0].ppp passedUpPk:vector(packetBytes) ETV
attr interpolationmode none
attr source packetSentToUpper
attr title "packets passed to higher layer, vector(packetBytes)"
vector 382 NetworkWithShapingAndPolicing.R2.ppp[1].ppp rxPkOk:vector(packetBytes) ETV
attr interpolationmode none
attr source rxPkOk
attr title "packets received OK, vector(packetBytes)"
vector 383 NetworkWithShapingAndPolicing.R2.ppp[1].ppp passedUpPk:vector(packetBytes) ETV
attr interpolationmode none
attr source packetSentToUpper
attr title "packets passed to higher layer, vector(packetBytes)"
vector 384 NetworkWithShapingAndPolicing.R10.ppp[1].ppp rxPkOk:vector(packetBytes) ETV
attr interpolationmode none
attr source rxPkOk
attr title "packets received OK, vector(packetBytes)"
vector 385 NetworkWithShapingAndPolicing.R10.ppp[1].ppp passedUpPk:vector(packetBytes) ETV
attr interpolationmode none
attr source packetSentToUpper
attr title "packets passed to higher layer, vector(packetBytes)"
vector 386 NetworkWithShapingAndPolicing.R9.ppp[1].ppp rxPkOk:vector(packetBytes) ETV
attr interpolationmode none
attr source rxPkOk
attr title "packets received OK, vector(packetBytes)"
vector 387 NetworkWithShapingAndPolicing.R9.ppp[1].ppp passedUpPk:vector(packetBytes) ETV
attr interpolationmode none
attr source packetSentToUpper
attr title "packets passed to higher layer, vector(packetBytes)"
vector 388 NetworkWithShapingAndPolicing.R5.ppp[1].ppp rxPkOk:vector(packetBytes) ETV
attr interpolationmode none
attr source rxPkOk
attr title "packets received OK, vector(packetBytes)"
vector 389 NetworkWithShapingAndPolicing.R5.ppp[1].ppp passedUpPk:vector(packetBytes) ETV
attr interpolationmode none
attr source packetSentToUpper
attr title "packets passed to higher layer, vector(packetBytes)"
vector 390 NetworkWithShapingAndPolicing.R9.ppp[3].ppp rxPkOk:vector(packetBytes) ETV
attr interpolationmode none
attr source rxPkOk
attr title "packets received OK, vector(packetBytes)"
vector 391 NetworkWithShapingAndPolicing.R9.ppp[3].ppp passedUpPk:vector(packetBytes) ETV
attr interpolationmode none
attr source packetSentToUpper
attr title "packets passed to higher layer, vector(packetBytes)"
vector 392 NetworkWithShapingAndPolicing.R9.ppp[2].ppp rxPkOk:vector(packetBytes) ETV
attr interpolationmode none
attr source rxPkOk
attr title "packets received OK, vector(packetBytes)"
vector 393 NetworkWithShapingAndPolicing.R9.ppp[2].ppp passedUpPk:vector(packetBytes) ETV
attr interpolationmode none
attr source packetSentToUpper
attr title "packets passed to higher layer, vector(packetBytes)"
[...]
253	68604323 839 849065 996287 1030.108173347561 1240.108173347561 29 64 104 2024 143840
254	68605162 1616 849065 996287 1030.108173347561 1240.108173347561 58 0 1 29 29
255	68606778 839 849065 996287 1030.108173347561 1240.108173347561 29 64 104 2024 143840
256	68607617 808 849065 996287 1030.108173347561 1240.108173347561 29 0 0 0 0
257	68608425 839 849065 996287 1030.108173347561 1240.108173347561 29 71 111 2227 173597
258	68609264 177727 841336 996290 1020.592993483917 1240.10852570675 5396 40 528 2013782 898273652
259	68786991 177727 841336 996290 1020.592993483917 1240.10852570675 5396 40 528 2013782 898273652
260	68964718 357566 841336 996290 1020.592993483917 1240.10852570675 10892 0 101 1081658 108304510
261	69322284 39301 841338 996290 1020.604888986389 1240.10852570675 1193 48 528 498640 238242112
262	69361585 46965 841338 996290 1020.604888986389 1240.10852570675 1193 0 11.897483242797 12543.248885383 135367.25580117
263	69408550 39301 841338 996290 1020.604888986389 1240.10852570675 1193 55 535 506991 245281529
264	69447851 1428 842766 996293 1022.313388986389 1240.108559950379 45 40 352 4100 499600
265	69449279 1428 842766 996293 1022.313388986389 1240.108559950379 45 40 352 4100 499600
266	69450707 2738 842766 996293 1022.313388986389 1240.108559950379 90 0 1 45 45
267	69453445 1428 842766 996293 1022.313388986389 1240.108559950379 45 40 352 4100 499600
268	69454873 1380 842766 996293 1022.313388986389 1240.108559950379 45 0 0.0815 0.12225 0.0083028125
269	69456253 1428 842766 996293 1022.313388986389 1240.108559950379 45 47 359 4415 559205
270	69457681 1067 849082 996304 1030.109716053439 1240.109716053439 33 75 175 3155 332201
271	69458748 1067 849082 996304 1030.109716053439 1240.109716053439 33 68 168 2924 289648
272	69459815 92956 845023 996299 1025.28157942101 1240.108847807824 2827 48 528 1092820 500380400
273	69552771 92956 845023 996299 1025.28157942101 1240.108847807824 2827 48 528 1092820 500380400
274	69645727 185098 845023 996299 1025.28157942101 1240.108847807824 5654 0 101 547819 54497907
275	69830825 23988 845023 996299 1025.28157942101 1240.108847807824 731 48 528 301748 145022416
276	69854813 28314 845023 996299 1025.28157942101 1240.108847807824 731 0 11.944540159236 6907.9435349064 73689.87658149
277	69883127 23988 845023 996299 1025.28157942101 1240.108847807824 731 55 535 306865 149282707
278	69907115 4714 849085 996307 1030.109978422814 1240.109978422814 144 71 535 51160 23762688
279	69911829 4714 849085 996307 1030.109978422814 1240.109978422814 144 64 528 50152 23053504
280	69916543 839 849081 996303 1030.109555914097 1240.109555914097 29 64 104 2024 143840
281	69917382 839 849081 996303 1030.109555914097 1240.109555914097 29 64 104 2024 143840
282	69918221 1616 849081 996303 1030.109555914097 1240.109555914097 58 0 1 29 29
283	69919837 839 849081 996303 1030.109555914097 1240.109555914097 29 64 104 2024 143840
284	69920676 808 849081 996303 1030.109555914097 1240.109555914097 29 0 0 0 0
285	69921484 839 849081 996303 1030.109555914097 1240.109555914097 29 71 111 2227 173597
286	69922323 1741 845006 996310 1025.270059950379 1240.111012027451 54 47 535 7858 2258534
287	69924064 1741 845006 996310 1025.270059950379 1240.111012027451 54 40 528 7480 2151168
288	69925805 1067 849096 996315 1030.111032276554 1240.111032276554 33 68 168 2924 289648
289	69926872 1067 849096 996315 1030.111032276554 1240.111032276554 33 68 168 2924 289648
290	69927939 2046 849096 996315 1030.111032276554 1240.111032276554 66 0 1 33 33
291	69929985 1067 849096 996315 1030.111032276554 1240.111032276554 33 68 168 2924 289648
292	69931052 1023 849096 996315 1030.111032276554 1240.111032276554 33 0 0 0 0
293	69932075 1067 849096 996315 1030.111032276554 1240.111032276554 33 75 175 3155 332201
294	69933142 1177 849101 996320 1030.111736760164 1240.111736760164 39 64 168 3152 288928
295	69934319 1177 849101 996320 1030.111736760164 1240.111736760164 39 64 168 3152 288928
296	69935496 2262 849101 996320 1030.111736760164 1240.111736760164 78 0 1 39 39
297	69937758 1177 849101 996320 1030.111736760164 1240.111736760164 39 64 168 3152 288928
298	69938935 1131 849101 996320 1030.111736760164 1240.111736760164 39 0 0 0 0
299	69940066 1177 849101 996320 1030.111736760164 1240.111736760164 39 71 175 3425 334967
300	69941243 881 849114 996321 1030.113223993728 1240.113223993728 29 71 111 2227 173597
301	69942124 881 849114 996321 1030.113223993728 1240.113223993728 29 64 104 2024 143840
302	69943005 1167 849117 996324 1030.113260047472 1240.113260047472 37 59 359 3107 356437
303	69944172 1167 849117 996324 1030.113260047472 1240.113260047472 37 52 352 2848 314752
304	69945339 839 849122 996329 1030.113836309436 1240.113836309436 29 64 104 2024 143840
305	69946178 839 849122 996329 1030.113836309436 1240.113836309436 29 64 104 2024 143840
306	69947017 1616 849122 996329 1030.113836309436 1240.113836309436 58 0 1 29 29
307	69948633 839 849122 996329 1030.113836309436 1240.113836309436 29 64 104 2024 143840
308	69949472 808 849122 996329 1030.113836309436 1240.113836309436 29 0 0 0 0
309	69950280 839 849122 996329 1030.113836309436 1240.113836309436 29 71 111 2227 173597
310	69951119 4842 849124 996332 1030.117096980613 1240.117096980613 148 71 535 51444 23782852
311	69955961 4842 849124 996332 1030.117096980613 1240.117096980613 148 64 528 50408 23069888
312	69960803 23224 841423 996335 1020.681638986389 1240.118200692058 705 71 535 324259 164353609
313	69984027 23224 841423 996335 1020.681638986389 1240.118200692058 705 64 528 319324 159848528
314	70007251 1141 849129 996340 1030.118226617754 1240.118226617754 37 64 168 3124 298608
315	70008392 1141 849129 996340 1030.118226617754 1240.118226617754 37 64 168 3124 298608
316	70009533 2190 849129 996340 1030.118226617754 1240.118226617754 74 0 1 37 37
317	70011723 1141 849129 996340 1030.118226617754 1240.118226617754 37 64 168 3124 298608
318	70012864 1105 849129 996340 1030.118226617754 1240.118226617754 37 0 0.04375 0.06175 0.0022380625
319	70013969 1141 849129 996340 1030.118226617754 1240.118226617754 37 71 175 3383 344157
320	70015110 30933 841525 997711 1020.778081632304 1249.926081632304 939 28 528 442600 224614688
321	70046043 30933 841526 997712 1020.778081632304 1249.926081632304 939 46 546 459502 240852524
322	70076976 30933 841526 997712 1020.778081632304 1249.926081632304 939 64 546 459538 240856484
323	70107909 58158 841526 997712 1020.778081632304 1249.926081632304 1878 0 1 939 939
324	70166067 30933 841526 997712 1020.778081632304 1249.926081632304 939 64 546 459538 240856484
325	70197000 30933 841526 997712 1020.778081632304 1249.926081632304 939 64 546 459538 240856484
326	70227933 58158 841526 997712 1020.778081632304 1249.926081632304 1878 0 1 939 939
327	70286091 30933 841526 997712 1020.778081632304 1249.926081632304 939 64 546 459538 240856484
328	70317024 29079 841526 997712 1020.778081632304 1249.926081632304 939 0 0 0 0
329	70346103 87237 841526 997712 1020.778081632304 1249.926081632304 2817 0 0 0 0
330	70433340 30933 841526 997712 1020.778081632304 1249.926081632304 939 64 546 459538 240856484
331	70464273 30933 841526 997712 1020.778081632304 1249.926081632304 939 64 546 459538 240856484
332	70495206 30937 841527 997713 1020.778125952304 1249.926125952304 939 64 546 459538 240856484
333	70526143 30937 841528 997714 1020.778126002304 1249.926126002304 939 64 546 459538 240856484
334	70557080 30937 841528 997714 1020.778126002304 1249.926126002304 939 64 546 459538 240856484
335	70588017 30937 841529 997715 1020.778126002304 1249.926126002304 939 46 528 442636 224617352
336	70618954 974 849141 996352 1030.119763288281 1240.119763288281 34 64 156 2544 207008
337	70619928 974 849141 996352 1030.119763288281 1240.119763288281 34 64 156 2544 207008
338	70620902 1874 849141 996352 1030.119763288281 1240.119763288281 68 0 1 34 34
339	70622776 974 849141 996352 1030.119763288281 1240.119763288281 34 64 156 2544 207008
340	70623750 937 849141 996352 1030.119763288281 1240.119763288281 34 0 0 0 0
341	70624687 974 849141 996352 1030.119763288281 1240.119763288281 34 71 163 2782 244290
342	70625661 1085 849145 996355 1030.123052620812 1240.123052620812 35 71 175 3129 311611
343	70626746 1085 849145 996355 1030.123052620812 1240.123052620812 35 64 168 2884 269520
344	70627831 1099 849148 996358 1030.123131343521 1240.123131343521 34 47 175 3202 334410
345	70628930 1099 849148 996358 1030.123131343521 1240.123131343521 34 40 168 2964 291248
346	70630029 31614 841379 997705 1020.642331632304 1249.790331632304 959 71 535 451481 231131983
347	70661643 31614 841379 997705 1020.642331632304 1249.790331632304 959 64 528 444768 224858240
348	70693257 23515 849170 996367 1030.127494704792 1240.127494704792 715 71 535 303525 147961419
349	70716772 23515 849170 996367 1030.127494704792 1240.127494704792 715 64 528 298520 143747104
350	70740287 1419 849177 996374 1030.129023351139 1240.129023351139 44 71 175 3936 387652
351	70741706 1419 849177 996374 1030.129023351139 1240.129023351139 44 64 168 3628 334704
352	70743125 1067 849180 996380 1030.129292504552 1240.129292504552 33 75 175 3155 332201
353	70744192 1067 849180 996380 1030.129292504552 1240.129292504552 33 68 168 2924 289648
354	70745259 17432 841431 996383 1020.688888986389 1240.129373400851 531 59 535 229881 113959467
355	70762691 17432 841431 996383 1020.688888986389 1240.129373400851 531 52 528 226164 110767152
356	70780123 881 849174 996371 1030.128923347561 1240.128923347561 29 71 111 2227 173597
357	70781004 881 849174 996371 1030.128923347561 1240.128923347561 29 64 104 2024 143840
358	70781885 39352 841339 996377 1020.606888986389 1240.12927570675 1194 55 535 507526 245567754
359	70821237 39352 841339 996377 1020.606888986389 1240.12927570675 1194 48 528 499168 238520896
360	70860589 24030 845037 996386 1025.29732942101 1240.129597807824 731 55 535 306865 149282707
361	70884619 24030 845037 996386 1025.29732942101 1240.129597807824 731 48 528 301748 145022416
362	70908649 1067 849188 996391 1030.131782276554 1240.131782276554 33 75 175 3155 332201
363	70909716 1067 849188 996391 1030.131782276554 1240.131782276554 33 68 168 2924 289648
364	70910783 1213 849192 996395 1030.132486760164 1240.132486760164 39 71 175 3425 334967
365	70911996 1213 849192 996395 1030.132486760164 1240.132486760164 39 64 168 3152 288928
366	70913209 1067 849195 996398 1030.134089763719 1240.134089763719 33 75 175 3155 332201
367	70914276 1067 849195 996398 1030.134089763719 1240.134089763719 33 68 168 2924 289648
368	70915343 19851 841571 996405 1020.813388986389 1240.136343115973 603 55 535 277157 141048027
369	70935194 19851 841571 996405 1020.813388986389 1240.136343115973 603 48 528 272936 137197376
370	70955045 4804 849202 996409 1030.137496321822 1240.137496321822 148 55 535 51104 23710108
371	70959849 4804 849202 996409 1030.137496321822 1240.137496321822 148 48 528 50068 23001904
372	70964653 1419 849205 996412 1030.138083512909 1240.138083512909 44 71 175 3936 387652
373	70966072 1419 849205 996412 1030.138083512909 1240.138083512909 44 64 168 3628 334704
374	70967491 1794 849208 996415 1030.138132778686 1240.138132778686 56 55 359 4744 526360
375	70969285 1794 849208 996415 1030.138132778686 1240.138132778686 56 48 352 4352 462688
376	70971079 2595 844062 997190 1023.996831632304 1245.813331632304 83 47 359 7437 891859
377	70973674 2595 844062 997190 1023.996831632304 1245.813331632304 83 40 352 6856 791808
378	70976269 33116 841427 997701 1020.684331632304 1249.788331632304 1005 55 535 458415 232619333
379	71009385 33116 841427 997701 1020.684331632304 1249.788331632304 1005 48 528 451380 226250768
380	71042501 1045 849220 996427 1030.14080181749 1240.14080181749 33 75 175 3155 332201
381	71043546 1045 849220 996427 1030.14080181749 1240.14080181749 33 68 168 2924 289648
382	71044591 1028 849216 996423 1030.140513288281 1240.140513288281 34 71 163 2782 244290
383	71045619 1028 849216 996423 1030.140513288281 1240.140513288281 34 64 156 2544 207008
384	71046647 874 849223 996430 1030.142553060732 1240.142553060732 29 71 111 2227 173597
385	71047521 874 849223 996430 1030.142553060732 1240.142553060732 29 64 104 2024 143840
386	71048395 1835 844188 996434 1024.192081632304 1240.145134331586 57 47 175 4643 426161
387	71050230 1835 844188 996434 1024.192081632304 1240.145134331586 57 40 168 4244 363952
388	71052065 1438 842812 996439 1022.384888986389 1240.148059950379 45 47 359 4415 559205
389	71053503 1438 842812 996439 1022.384888986389 1240.148059950379 45 40 352 4100 499600
390	71054941 874 849247 996442 1030.149055914097 1240.149055914097 29 71 111 2227 173597
391	71055815 874 849247 996442 1030.149055914097 1240.149055914097 29 64 104 2024 143840
392	71056689 874 849263 996446 1030.153336309436 1240.153336309436 29 71 111 2227 173597
393	71057563 874 849263 996446 1030.153336309436 1240.153336309436 29 64 104 2024 143840
394	71058437 1161 849267 996450 1030.157726617754 1240.157726617754 37 71 175 3383 344157
395	71059598 1161 849267 996450 1030.157726617754 1240.157726617754 37 64 168 3124 298608
401	71060759 32 889869 889869 1081.152844616389 1081.152844616389 1 28 28 28 784
402	71060791 267320 841345 987341 1020.612975353917 1199.992844616389 8114 28 528 3093438 1395396724
403	71328111 267321 841346 987342 1020.612975353917 1199.992844616389 8114 46 546 3239490 1509389428
404	71595432 267321 841346 987342 1020.612975353917 1199.992844616389 8114 64 546 3239514 1509392140
405	71862753 502267 841330 987342 1020.592975353917 1199.992844616389 16230 0 1 8115 8115
406	72365020 267354 841330 987342 1020.592975353917 1199.992844616389 8115 64 546 3239732 1509439664
407	72632374 267354 841330 987342 1020.592975353917 1199.992844616389 8115 64 546 3239732 1509439664
408	72899728 502267 841330 987342 1020.592975353917 1199.992844616389 16230 0 1 8115 8115
409	73401995 267369 841330 987342 1020.592975353917 1199.992844616389 8115 64 546 3239732 1509439664
410	73669364 251321 841330 987342 1020.592975353917 1199.992844616389 8115 0 2.2002979e-05 0.000330044685 7.2619662731166e-09
411	73920685 753963 841330 987342 1020.592975353917 1199.992844616389 24345 0 2.2002979e-05 0.000990134055 2.178589881935e-08
412	74674648 267369 841330 987342 1020.592975353917 1199.992844616389 8115 64 546 3239732 1509439664
413	74942017 267369 841330 987342 1020.592975353917 1199.992844616389 8115 64 546 3239732 1509439664
414	75209386 267369 841331 987343 1020.592993433917 1199.992888936389 8115 64 546 3239732 1509439664
415	75476755 267369 841332 987344 1020.592993483917 1199.992888986389 8115 64 546 3239732 1509439664
416	75744124 267369 841332 987344 1020.592993483917 1199.992888986389 8115 64 546 3239732 1509439664
417	76011493 267368 841333 987345 1020.592993483917 1199.992888986389 8115 46 528 3093662 1395438572
418	76278861 251142 841334 987346 1020.592993483917 1199.992888986389 8115 -1 2 4488 4494
419	76530003 32 889876 889876 1081.152850426389 1081.152850426389 1 28 28 28 784
420	76530035 267336 841334 987346 1020.592993483917 1199.992888986389 8114 46 528 3093616 1395436456
421	76797371 64 890905 988309 1082.809081632304 1202.862081632304 2 28 28 56 1568
422	76797435 64 890911 988315 1082.809087442304 1202.862087442304 2 28 28 56 1568
423	76797499 96 890912 988316 1082.809087442304 1202.862087442304 3 28 40 96 3168
424	76797595 96 890913 988317 1082.809087442304 1202.862087442304 3 46 58 150 7596
425	76797691 96 890913 988317 1082.809087442304 1202.862087442304 3 64 64 192 12288
426	76797787 186 890913 988317 1082.809087442304 1202.862087442304 6 0 1 3 3
427	76797973 96 890913 988317 1082.809087442304 1202.862087442304 3 64 64 192 12288
428	76798069 96 890913 988317 1082.809087442304 1202.862087442304 3 64 64 192 12288
429	76798165 186 890913 988317 1082.809087442304 1202.862087442304 6 0 1 3 3
430	76798351 96 890913 988317 1082.809087442304 1202.862087442304 3 64 64 192 12288
431	76798447 93 890913 988317 1082.809087442304 1202.862087442304 3 0 0 0 0
432	76798540 279 890913 988317 1082.809087442304 1202.862087442304 9 0 0 0 0
433	76798819 96 890913 988317 1082.809087442304 1202.862087442304 3 64 64 192 12288
434	76798915 96 890913 988317 1082.809087442304 1202.862087442304 3 64 64 192 12288
435	76799011 96 890915 988319 1082.809093202304 1202.862093202304 3 64 64 192 12288
436	76799107 96 890916 988320 1082.809093252304 1202.862093252304 3 64 64 192 12288
437	76799203 96 890916 988320 1082.809093252304 1202.862093252304 3 64 64 192 12288
438	76799299 96 890917 988321 1082.809093252304 1202.862093252304 3 46 46 138 6348
439	76799395 95 890918 988322 1082.809093252304 1202.862093252304 3 -1 0 -2 2
442	76799490 36 908189 908189 1103.915337442304 1103.915337442304 1 257556 257556 257556 66335093136
444	76799526 31 908189 908189 1103.915337442304 1103.915337442304 1 0 0 0 0
445	76799557 34 908189 908189 1103.915337442304 1103.915337442304 1 7504 7504 7504 56310016
446	76799591 36 908189 908189 1103.915337442304 1103.915337442304 1 250052 250052 250052 62526002704
447	76799627 32 908196 908196 1103.915343252304 1103.915343252304 1 46 46 46 2116
456	76799659 31 908189 908189 1103.915337442304 1103.915337442304 1 1 1 1 1
462	76799690 119219 841342 987258 1020.612975353917 1199.82940713889 3626 172 172 623672 107271584
463	76918909 267224 841343 987339 1020.612975353917 1199.992844616389 8111 180 508 2931060 1274899440
464	77186133 148005 841354 987338 1020.632844616389 1199.992844616389 4485 500 500 2242500 1121250000
474	77334138 30191 841531 997717 1020.778126002304 1249.926126002304 915 180 508 422836 207243568
475	77364329 31106 841531 997717 1020.778126002304 1249.926126002304 915 4208 5122 4268475 19976274205
476	77395435 3663 842009 995360 1021.402349762304 1235.948099762304 111 172 172 19092 3283824
477	77399098 4989 842009 995360 1021.402349762304 1235.948099762304 111 26.624215928135 61.705084323531 5574.3444137411 289386.7413853
478	77404087 25967 841532 997718 1020.778126002304 1249.926126002304 787 500 500 393500 196750000
479	77430054 48592 841532 997773 1020.6 1250 2295 0 40000 31520000 1260800000000
480	77478646 35411 841532 997718 1020.778126002304 1249.926126002304 787 23.185281385915 62.422281385915 43836.168459452 2474539.0159749
481	77514057 27541 841532 997718 1020.778126002304 1249.926126002304 787 23959 29958 21221788 574470080476
482	77541598 141761 841336 934027 1020.592993483917 1134.829831632304 4303 40 528 1561382 683134260
483	77683359 32 908189 908189 1103.915337442304 1103.915337442304 1 10 10 10 100
484	77683391 34 908189 908189 1103.915337442304 1103.915337442304 1 1072 1072 1072 1149184
485	77683425 33 908189 908189 1103.915337442304 1103.915337442304 1 536 536 536 287296
488	77683458 31 928563 928563 1128.253349062304 1128.253349062304 1 0 0 0 0
489	77683489 37 928563 928563 1128.253349062304 1128.253349062304 1 6789151 6789151 6789151 46092571300801
490	77683526 34 928563 928563 1128.253349062304 1128.253349062304 1 7504 7504 7504 56310016
491	77683560 37 928563 928563 1128.253349062304 1128.253349062304 1 6781647 6781647 6781647 45990736032609
492	77683597 69038 936711 987348 1137.435348991006 1199.992888986389 2096 48 528 791072 355357984
493	77752635 11704 841425 991842 1020.681638986389 1217.819388986389 355 48 528 129740 58681136
502	77764339 37 928563 928563 1128.253349062304 1128.253349062304 1 4014150 4014150 4014150 16113400222500
504	77764376 561 852672 996903 1034.658849762304 1243.347349762304 17 172 172 2924 502928
505	77764937 32 928563 928563 1128.253349062304 1128.253349062304 1 10 10 10 100
506	77764969 34 928563 928563 1128.253349062304 1128.253349062304 1 1072 1072 1072 1149184
507	77765003 33 928563 928563 1128.253349062304 1128.253349062304 1 536 536 536 287296
509	77765036 8244 954369 990101 1157.623388986389 1210.102388986389 250 68 528 97752 45127776
510	77773280 20608 841485 933727 1020.740638986389 1134.581138986389 625 48 528 229972 102485936
511	77793888 236403 997773 997773 0.1 1250 12500 0 0 0 0

