version 2
run Exp1DropTailWithoutPolicingAndShaping-0-20210404-00:57:15-71490
attr configname Exp1DropTailWithoutPolicingAndShaping
attr datetime 20210404-00:57:15
attr experiment Exp1DropTailWithoutPolicingAndShaping
attr inifile omnetpp.ini
attr iterationvars ""
attr iterationvarsf ""
attr measurement ""
attr network NetworkWithShapingAndPolicing
attr processid 71490
attr repetition 0
attr replication #0
attr resultdir results
attr runnumber 0
attr seedset 0
param **.ppp[*].ppp.queue.typename "\"DropTailQueue\""
param **.eth[*].mac.queue.typename "\"EtherQosQueue\""
param **.eth[*].mac.queue.dataQueue.typename "\"DropTailQueue\""
param **.queue.packetCapacity 100
param **.H?.numApps 3
param **.H1.app[0].typename "\"UdpBasicBurst\""
param **.H1.app[0].destAddresses "\"H2\""
param **.H1.app[0].chooseDestAddrMode "\"once\""
param **.H1.app[0].destPort 1000
param **.H1.app[0].startTime uniform(1s,2s)
param **.H1.app[0].stopTime 1200s
param **.H1.app[0].messageLength 172B
param **.H1.app[0].burstDuration exponential(0.352s)
param **.H1.app[0].sleepDuration exponential(0.650s)
param **.H1.app[0].sendInterval 20ms
param **.H2.app[0].typename "\"UdpBasicBurst\""
param **.H2.app[0].localPort 1000
param **.H2.app[0].delayLimit 0ms
param **.H2.app[0].destAddresses "\"\""
param **.H2.app[0].chooseDestAddrMode "\"once\""
param **.H2.app[0].destPort 0
param **.H2.app[0].messageLength 0B
param **.H2.app[0].burstDuration 0s
param **.H2.app[0].sleepDuration 0s
param **.H2.app[0].sendInterval 0ms
param **.H1.app[1].typename "\"UdpBasicApp\""
param **.H1.app[1].destPort 2000
param **.H1.app[1].startTime uniform(1s,2s)
param **.H1.app[1].stopTime 1200s
param **.H1.app[1].sendInterval 40ms
param **.H1.app[1].messageLength 500B
param **.H1.app[1].destAddresses "\"H2\""
param **.H2.app[1].typename "\"UdpSink\""
param **.H2.app[1].localPort 2000
param **.H1.app[2].typename "\"TcpBasicClientApp\""
param **.H1.app[2].connectAddress "\"H2\""
param **.H1.app[2].connectPort 3000
param **.H1.app[2].numRequestsPerSession 1
param **.H1.app[2].requestLength 50B
param **.H1.app[2].replyLength 100B
param **.H1.app[2].thinkTime 40ms
param **.H1.app[2].idleInterval 10s
param **.H1.app[2].stopTime 1200s
param **.H2.app[2].typename "\"TcpGenericServerApp\""
param **.H2.app[2].localPort 3000
param **.edgeDatarate 32kbps
param **.coreDatarate 16kbps
param **.R1.eth[?].ingressTC.typename "\"TC1\""
param **.R15.eth[?].ingressTC.typename "\"TC1\""
param **.ingressTC.numClasses 3
param **.ingressTC.classifier.filters "xmldoc(\"filters.xml\", \"//experiment[@id='default']\")"
param **.ingressTC.marker.dscps "\"AF11 AF21 AF31 AF41 BE\""
param **.queue.typename "\"EtherQosQueue\""
param **.queue.dataQueue.typename "\"DropTailQueue\""
param **.queue.packetCapacity 100
param **.queue.dataQueue.packetCapacity 100
param **.R*.hasOspf true
param **.R*.ospf.ospfConfig "xmldoc(\"OSPFConfig.xml\")"

scalar NetworkWithShapingAndPolicing.R1.pppg$o[0].channel packetsDiscarded:count 0
attr interpolationmode none
attr source constant1(messageDiscarded)
scalar NetworkWithShapingAndPolicing.R1.pppg$o[0].channel utilization:last 0.5535686418184
attr source timeavg(channelBusy)
scalar NetworkWithShapingAndPolicing.R1.pppg$o[0].channel packets:count 6603
attr interpolationmode none
attr source constant1(messageSent)
scalar NetworkWithShapingAndPolicing.R1.pppg$o[0].channel packetBytes:sum 2745983
attr interpolationmode none
attr source packetBytes(messageSent)
attr unit B
scalar NetworkWithShapingAndPolicing.R1.pppg$o[0].channel throughput:last 17714.464370473
attr source sumPerDuration(packetBits(messageSent))
attr unit bps
scalar NetworkWithShapingAndPolicing.R1.pppg$o[1].channel packetsDiscarded:count 0
attr interpolationmode none
attr source constant1(messageDiscarded)
scalar NetworkWithShapingAndPolicing.R1.pppg$o[1].channel utilization:last 0.67953871873327
attr source timeavg(channelBusy)
scalar NetworkWithShapingAndPolicing.R1.pppg$o[1].channel packets:count 7982
attr interpolationmode none
attr source constant1(messageSent)
scalar NetworkWithShapingAndPolicing.R1.pppg$o[1].channel packetBytes:sum 3370858
attr interpolationmode none
attr source packetBytes(messageSent)
attr unit B
scalar NetworkWithShapingAndPolicing.R1.pppg$o[1].channel throughput:last 21745.567779748
attr source sumPerDuration(packetBits(messageSent))
attr unit bps
scalar NetworkWithShapingAndPolicing.R1.ethg$o[0].channel packetsDiscarded:count 0
attr interpolationmode none
attr source constant1(messageDiscarded)
scalar NetworkWithShapingAndPolicing.R1.ethg$o[0].channel utilization:last 8.7721448168179e-07
attr source timeavg(channelBusy)
scalar NetworkWithShapingAndPolicing.R1.ethg$o[0].channel packets:count 155
attr interpolationmode none
attr source constant1(messageSent)
scalar NetworkWithShapingAndPolicing.R1.ethg$o[0].channel packetBytes:sum 13598
attr interpolationmode none
attr source packetBytes(messageSent)
attr unit B
scalar NetworkWithShapingAndPolicing.R1.ethg$o[0].channel throughput:last 87.721448677485
attr source sumPerDuration(packetBits(messageSent))
attr unit bps
scalar NetworkWithShapingAndPolicing.R2.pppg$o[0].channel packetsDiscarded:count 0
attr interpolationmode none
attr source constant1(messageDiscarded)
scalar NetworkWithShapingAndPolicing.R2.pppg$o[0].channel utilization:last 0.010129534667332
attr source timeavg(channelBusy)
scalar NetworkWithShapingAndPolicing.R2.pppg$o[0].channel packets:count 357
attr interpolationmode none
attr source constant1(messageSent)
scalar NetworkWithShapingAndPolicing.R2.pppg$o[0].channel packetBytes:sum 50247
attr interpolationmode none
attr source packetBytes(messageSent)
attr unit B
scalar NetworkWithShapingAndPolicing.R2.pppg$o[0].channel throughput:last 324.15001037674
attr source sumPerDuration(packetBits(messageSent))
attr unit bps
scalar NetworkWithShapingAndPolicing.R2.pppg$o[1].channel packetsDiscarded:count 0
attr interpolationmode none
attr source constant1(messageDiscarded)
scalar NetworkWithShapingAndPolicing.R2.pppg$o[1].channel utilization:last 0.036600441888718
attr source timeavg(channelBusy)
scalar NetworkWithShapingAndPolicing.R2.pppg$o[1].channel packets:count 606
attr interpolationmode none
attr source constant1(messageSent)
scalar NetworkWithShapingAndPolicing.R2.pppg$o[1].channel packetBytes:sum 181554
attr interpolationmode none
attr source packetBytes(messageSent)
attr unit B
scalar NetworkWithShapingAndPolicing.R2.pppg$o[1].channel throughput:last 1171.2318490559
attr source sumPerDuration(packetBits(messageSent))
attr unit bps
scalar NetworkWithShapingAndPolicing.R2.pppg$o[2].channel packetsDiscarded:count 0
attr interpolationmode none
attr source constant1(messageDiscarded)
scalar NetworkWithShapingAndPolicing.R2.pppg$o[2].channel utilization:last 0.8347567388538
attr source timeavg(channelBusy)
scalar NetworkWithShapingAndPolicing.R2.pppg$o[2].channel packets:count 4815
attr interpolationmode none
attr source constant1(messageSent)
scalar NetworkWithShapingAndPolicing.R2.pppg$o[2].channel packetBytes:sum 2070421
attr interpolationmode none
attr source packetBytes(messageSent)
attr unit B
scalar NetworkWithShapingAndPolicing.R2.pppg$o[2].channel throughput:last 13356.511704668
attr source sumPerDuration(packetBits(messageSent))
attr unit bps
scalar NetworkWithShapingAndPolicing.R3.pppg$o[0].channel packetsDiscarded:count 0
attr interpolationmode none
attr source constant1(messageDiscarded)
scalar NetworkWithShapingAndPolicing.R3.pppg$o[0].channel utilization:last 0.0042587984675969
attr source timeavg(channelBusy)
scalar NetworkWithShapingAndPolicing.R3.pppg$o[0].channel packets:count 242
attr interpolationmode none
attr source constant1(messageSent)
scalar NetworkWithShapingAndPolicing.R3.pppg$o[0].channel packetBytes:sum 21126
attr interpolationmode none
attr source packetBytes(messageSent)
attr unit B
scalar NetworkWithShapingAndPolicing.R3.pppg$o[0].channel throughput:last 136.28361147303
attr source sumPerDuration(packetBits(messageSent))
attr unit bps
scalar NetworkWithShapingAndPolicing.R3.pppg$o[1].channel packetsDiscarded:count 0
attr interpolationmode none
attr source constant1(messageDiscarded)
scalar NetworkWithShapingAndPolicing.R3.pppg$o[1].channel utilization:last 0.037132440458242
attr source timeavg(channelBusy)
scalar NetworkWithShapingAndPolicing.R3.pppg$o[1].channel packets:count 642
attr interpolationmode none
attr source constant1(messageSent)
scalar NetworkWithShapingAndPolicing.R3.pppg$o[1].channel packetBytes:sum 184194
attr interpolationmode none
attr source packetBytes(messageSent)
attr unit B
scalar NetworkWithShapingAndPolicing.R3.pppg$o[1].channel throughput:last 1188.2560605777
attr source sumPerDuration(packetBits(messageSent))
attr unit bps
scalar NetworkWithShapingAndPolicing.R4.pppg$o[0].channel packetsDiscarded:count 0
attr interpolationmode none
attr source constant1(messageDiscarded)
scalar NetworkWithShapingAndPolicing.R4.pppg$o[0].channel utilization:last 0.030711412973069
attr source timeavg(channelBusy)
scalar NetworkWithShapingAndPolicing.R4.pppg$o[0].channel packets:count 634
attr interpolationmode none
attr source constant1(messageSent)
scalar NetworkWithShapingAndPolicing.R4.pppg$o[0].channel packetBytes:sum 152342
attr interpolationmode none
attr source packetBytes(messageSent)
attr unit B
scalar NetworkWithShapingAndPolicing.R4.pppg$o[0].channel throughput:last 982.7800744177
attr source sumPerDuration(packetBits(messageSent))
attr unit bps
scalar NetworkWithShapingAndPolicing.R4.pppg$o[1].channel packetsDiscarded:count 0
attr interpolationmode none
attr source constant1(messageDiscarded)
scalar NetworkWithShapingAndPolicing.R4.pppg$o[1].channel utilization:last 0.53001168253255
attr source timeavg(channelBusy)
scalar NetworkWithShapingAndPolicing.R4.pppg$o[1].channel packets:count 6326
attr interpolationmode none
attr source constant1(messageSent)
scalar NetworkWithShapingAndPolicing.R4.pppg$o[1].channel packetBytes:sum 2629124
attr interpolationmode none
attr source packetBytes(messageSent)
attr unit B
scalar NetworkWithShapingAndPolicing.R4.pppg$o[1].channel throughput:last 16960.630276232
attr source sumPerDuration(packetBits(messageSent))
attr unit bps
scalar NetworkWithShapingAndPolicing.R5.pppg$o[0].channel packetsDiscarded:count 0
attr interpolationmode none
attr source constant1(messageDiscarded)
scalar NetworkWithShapingAndPolicing.R5.pppg$o[0].channel utilization:last 0.0062712351823806
attr source timeavg(channelBusy)
scalar NetworkWithShapingAndPolicing.R5.pppg$o[0].channel packets:count 280
attr interpolationmode none
attr source constant1(messageSent)
scalar NetworkWithShapingAndPolicing.R5.pppg$o[0].channel packetBytes:sum 31108
attr interpolationmode none
attr source packetBytes(messageSent)
attr unit B
scalar NetworkWithShapingAndPolicing.R5.pppg$o[0].channel throughput:last 200.6825600899
attr source sumPerDuration(packetBits(messageSent))
attr unit bps
scalar NetworkWithShapingAndPolicing.R5.pppg$o[1].channel packetsDiscarded:count 0
attr interpolationmode none
attr source constant1(messageDiscarded)
scalar NetworkWithShapingAndPolicing.R5.pppg$o[1].channel utilization:last 0.69762874246338
attr source timeavg(channelBusy)
scalar NetworkWithShapingAndPolicing.R5.pppg$o[1].channel packets:count 4019
attr interpolationmode none
attr source constant1(messageSent)
scalar NetworkWithShapingAndPolicing.R5.pppg$o[1].channel packetBytes:sum 1730297
attr interpolationmode none
attr source packetBytes(messageSent)
attr unit B
scalar NetworkWithShapingAndPolicing.R5.pppg$o[1].channel throughput:last 11162.397417244
attr source sumPerDuration(packetBits(messageSent))
attr unit bps
scalar NetworkWithShapingAndPolicing.R6.pppg$o[0].channel packetsDiscarded:count 0
attr interpolationmode none
attr source constant1(messageDiscarded)
scalar NetworkWithShapingAndPolicing.R6.pppg$o[0].channel utilization:last 0.0054232196303555
attr source timeavg(channelBusy)
scalar NetworkWithShapingAndPolicing.R6.pppg$o[0].channel packets:count 290
attr interpolationmode none
attr source constant1(messageSent)
scalar NetworkWithShapingAndPolicing.R6.pppg$o[0].channel packetBytes:sum 26902
attr interpolationmode none
attr source packetBytes(messageSent)
attr unit B
scalar NetworkWithShapingAndPolicing.R6.pppg$o[0].channel throughput:last 173.54565207347
attr source sumPerDuration(packetBits(messageSent))
attr unit bps
scalar NetworkWithShapingAndPolicing.R6.pppg$o[1].channel packetsDiscarded:count 0
attr interpolationmode none
attr source constant1(messageDiscarded)
scalar NetworkWithShapingAndPolicing.R6.pppg$o[1].channel utilization:last 0.072642465494449
attr source timeavg(channelBusy)
scalar NetworkWithShapingAndPolicing.R6.pppg$o[1].channel packets:count 619
attr interpolationmode none
attr source constant1(messageSent)
scalar NetworkWithShapingAndPolicing.R6.pppg$o[1].channel packetBytes:sum 180173
attr interpolationmode none
attr source packetBytes(messageSent)
attr unit B
scalar NetworkWithShapingAndPolicing.R6.pppg$o[1].channel throughput:last 1162.3145947136
attr source sumPerDuration(packetBits(messageSent))
attr unit bps
scalar NetworkWithShapingAndPolicing.R7.pppg$o[0].channel packetsDiscarded:count 0
attr interpolationmode none
attr source constant1(messageDiscarded)
scalar NetworkWithShapingAndPolicing.R7.pppg$o[0].channel utilization:last 0.44778707002629
attr source timeavg(channelBusy)
scalar NetworkWithShapingAndPolicing.R7.pppg$o[0].channel packets:count 5140
attr interpolationmode none
attr source constant1(messageSent)
scalar NetworkWithShapingAndPolicing.R7.pppg$o[0].channel packetBytes:sum 2221232
attr interpolationmode none
attr source packetBytes(messageSent)
attr unit B
scalar NetworkWithShapingAndPolicing.R7.pppg$o[0].channel throughput:last 14329.402894977
attr source sumPerDuration(packetBits(messageSent))
attr unit bps
scalar NetworkWithShapingAndPolicing.R7.pppg$o[1].channel packetsDiscarded:count 0
attr interpolationmode none
attr source constant1(messageDiscarded)
scalar NetworkWithShapingAndPolicing.R7.pppg$o[1].channel utilization:last 0.012229705754978
attr source timeavg(channelBusy)
scalar NetworkWithShapingAndPolicing.R7.pppg$o[1].channel packets:count 363
attr interpolationmode none
attr source constant1(messageSent)
scalar NetworkWithShapingAndPolicing.R7.pppg$o[1].channel packetBytes:sum 30333
attr interpolationmode none
attr source packetBytes(messageSent)
attr unit B
scalar NetworkWithShapingAndPolicing.R7.pppg$o[1].channel throughput:last 195.68120920855
attr source sumPerDuration(packetBits(messageSent))
attr unit bps
scalar NetworkWithShapingAndPolicing.R7.pppg$o[2].channel packetsDiscarded:count 0
attr interpolationmode none
attr source constant1(messageDiscarded)
scalar NetworkWithShapingAndPolicing.R7.pppg$o[2].channel utilization:last 0.010576091146046
attr source timeavg(channelBusy)
scalar NetworkWithShapingAndPolicing.R7.pppg$o[2].channel packets:count 268
attr interpolationmode none
attr source constant1(messageSent)
scalar NetworkWithShapingAndPolicing.R7.pppg$o[2].channel packetBytes:sum 26232
attr interpolationmode none
attr source packetBytes(messageSent)
attr unit B
scalar NetworkWithShapingAndPolicing.R7.pppg$o[2].channel throughput:last 169.22257531232
attr source sumPerDuration(packetBits(messageSent))
attr unit bps
scalar NetworkWithShapingAndPolicing.R11.pppg$o[0].channel packetsDiscarded:count 0
attr interpolationmode none
attr source constant1(messageDiscarded)
scalar NetworkWithShapingAndPolicing.R11.pppg$o[0].channel utilization:last 0.004447115196182
attr source timeavg(channelBusy)
scalar NetworkWithShapingAndPolicing.R11.pppg$o[0].channel packets:count 220
attr interpolationmode none
attr source constant1(messageSent)
scalar NetworkWithShapingAndPolicing.R11.pppg$o[0].channel packetBytes:sum 22060
attr interpolationmode none
attr source packetBytes(messageSent)
attr unit B
scalar NetworkWithShapingAndPolicing.R11.pppg$o[0].channel throughput:last 142.3098379151
attr source sumPerDuration(packetBits(messageSent))
attr unit bps
scalar NetworkWithShapingAndPolicing.R11.pppg$o[1].channel packetsDiscarded:count 0
attr interpolationmode none
attr source constant1(messageDiscarded)
scalar NetworkWithShapingAndPolicing.R11.pppg$o[1].channel utilization:last 0.0065729881195452
attr source timeavg(channelBusy)
scalar NetworkWithShapingAndPolicing.R11.pppg$o[1].channel packets:count 205
attr interpolationmode none
attr source constant1(messageSent)
scalar NetworkWithShapingAndPolicing.R11.pppg$o[1].channel packetBytes:sum 16303
attr interpolationmode none
attr source packetBytes(messageSent)
attr unit B
scalar NetworkWithShapingAndPolicing.R11.pppg$o[1].channel throughput:last 105.17099009889
attr source sumPerDuration(packetBits(messageSent))
attr unit bps
scalar NetworkWithShapingAndPolicing.R12.pppg$o[0].channel packetsDiscarded:count 0
attr interpolationmode none
attr source constant1(messageDiscarded)
scalar NetworkWithShapingAndPolicing.R12.pppg$o[0].channel utilization:last 0.4927645279029
attr source timeavg(channelBusy)
scalar NetworkWithShapingAndPolicing.R12.pppg$o[0].channel packets:count 5329
attr interpolationmode none
attr source constant1(messageSent)
scalar NetworkWithShapingAndPolicing.R12.pppg$o[0].channel packetBytes:sum 2463673
attr interpolationmode none
attr source packetBytes(messageSent)
attr unit B
scalar NetworkWithShapingAndPolicing.R12.pppg$o[0].channel throughput:last 15770.15240169
attr source sumPerDuration(packetBits(messageSent))
attr unit bps
scalar NetworkWithShapingAndPolicing.R12.pppg$o[1].channel packetsDiscarded:count 0
attr interpolationmode none
attr source constant1(messageDiscarded)
scalar NetworkWithShapingAndPolicing.R12.pppg$o[1].channel utilization:last 0.012919879614248
attr source timeavg(channelBusy)
scalar NetworkWithShapingAndPolicing.R12.pppg$o[1].channel packets:count 379
attr interpolationmode none
attr source constant1(messageSent)
scalar NetworkWithShapingAndPolicing.R12.pppg$o[1].channel packetBytes:sum 32045
attr interpolationmode none
attr source packetBytes(messageSent)
attr unit B
scalar NetworkWithShapingAndPolicing.R12.pppg$o[1].channel throughput:last 206.7243248501
attr source sumPerDuration(packetBits(messageSent))
attr unit bps
scalar NetworkWithShapingAndPolicing.R13.pppg$o[0].channel packetsDiscarded:count 0
attr interpolationmode none
attr source constant1(messageDiscarded)
scalar NetworkWithShapingAndPolicing.R13.pppg$o[0].channel utilization:last 0.0044480007088048
attr source timeavg(channelBusy)
scalar NetworkWithShapingAndPolicing.R13.pppg$o[0].channel packets:count 220
attr interpolationmode none
attr source constant1(messageSent)
scalar NetworkWithShapingAndPolicing.R13.pppg$o[0].channel packetBytes:sum 22064
attr interpolationmode none
attr source packetBytes(messageSent)
attr unit B
scalar NetworkWithShapingAndPolicing.R13.pppg$o[0].channel throughput:last 142.33817478575
attr source sumPerDuration(packetBits(messageSent))
attr unit bps
scalar NetworkWithShapingAndPolicing.R13.pppg$o[1].channel packetsDiscarded:count 0
attr interpolationmode none
attr source constant1(messageDiscarded)
scalar NetworkWithShapingAndPolicing.R13.pppg$o[1].channel utilization:last 0.0032142278231812
attr source timeavg(channelBusy)
scalar NetworkWithShapingAndPolicing.R13.pppg$o[1].channel packets:count 200
attr interpolationmode none
attr source constant1(messageSent)
scalar NetworkWithShapingAndPolicing.R13.pppg$o[1].channel packetBytes:sum 15944
attr interpolationmode none
attr source packetBytes(messageSent)
attr unit B
scalar NetworkWithShapingAndPolicing.R13.pppg$o[1].channel throughput:last 102.85684549735
attr source sumPerDuration(packetBits(messageSent))
attr unit bps
scalar NetworkWithShapingAndPolicing.R9.pppg$o[0].channel packetsDiscarded:count 0
attr interpolationmode none
attr source constant1(messageDiscarded)
scalar NetworkWithShapingAndPolicing.R9.pppg$o[0].channel utilization:last 0.0154794706954
attr source timeavg(channelBusy)
scalar NetworkWithShapingAndPolicing.R9.pppg$o[0].channel packets:count 439
attr interpolationmode none
attr source constant1(messageSent)
scalar NetworkWithShapingAndPolicing.R9.pppg$o[0].channel packetBytes:sum 38569
attr interpolationmode none
attr source packetBytes(messageSent)
attr unit B
scalar NetworkWithShapingAndPolicing.R9.pppg$o[0].channel throughput:last 247.67858884829
attr source sumPerDuration(packetBits(messageSent))
attr unit bps
scalar NetworkWithShapingAndPolicing.R9.pppg$o[1].channel packetsDiscarded:count 0
attr interpolationmode none
attr source constant1(messageDiscarded)
scalar NetworkWithShapingAndPolicing.R9.pppg$o[1].channel utilization:last 0.99006257855214
attr source timeavg(channelBusy)
scalar NetworkWithShapingAndPolicing.R9.pppg$o[1].channel packets:count 5415
attr interpolationmode none
attr source constant1(messageSent)
scalar NetworkWithShapingAndPolicing.R9.pppg$o[1].channel packetBytes:sum 2475267
attr interpolationmode none
attr source packetBytes(messageSent)
attr unit B
scalar NetworkWithShapingAndPolicing.R9.pppg$o[1].channel throughput:last 15844.39180524
attr source sumPerDuration(packetBits(messageSent))
attr unit bps
scalar NetworkWithShapingAndPolicing.R9.pppg$o[2].channel packetsDiscarded:count 0
attr interpolationmode none
attr source constant1(messageDiscarded)
scalar NetworkWithShapingAndPolicing.R9.pppg$o[2].channel utilization:last 0.0093683568838329
attr source timeavg(channelBusy)
scalar NetworkWithShapingAndPolicing.R9.pppg$o[2].channel packets:count 228
attr interpolationmode none
attr source constant1(messageSent)
scalar NetworkWithShapingAndPolicing.R9.pppg$o[2].channel packetBytes:sum 23236
attr interpolationmode none
attr source packetBytes(messageSent)
attr unit B
scalar NetworkWithShapingAndPolicing.R9.pppg$o[2].channel throughput:last 149.89824287147
attr source sumPerDuration(packetBits(messageSent))
attr unit bps
scalar NetworkWithShapingAndPolicing.R9.pppg$o[3].channel packetsDiscarded:count 0
attr interpolationmode none
attr source constant1(messageDiscarded)
scalar NetworkWithShapingAndPolicing.R9.pppg$o[3].channel utilization:last 0.0093279881115295
attr source timeavg(channelBusy)
scalar NetworkWithShapingAndPolicing.R9.pppg$o[3].channel packets:count 228
attr interpolationmode none
attr source constant1(messageSent)
scalar NetworkWithShapingAndPolicing.R9.pppg$o[3].channel packetBytes:sum 23136
attr interpolationmode none
attr source packetBytes(messageSent)
attr unit B
scalar NetworkWithShapingAndPolicing.R9.pppg$o[3].channel throughput:last 149.2523229584
attr source sumPerDuration(packetBits(messageSent))
attr unit bps
scalar NetworkWithShapingAndPolicing.R10.pppg$o[0].channel packetsDiscarded:count 0
attr interpolationmode none
attr source constant1(messageDiscarded)
scalar NetworkWithShapingAndPolicing.R10.pppg$o[0].channel utilization:last 0.0065681726704548
attr source timeavg(channelBusy)
scalar NetworkWithShapingAndPolicing.R10.pppg$o[0].channel packets:count 205
attr interpolationmode none
attr source constant1(messageSent)
scalar NetworkWithShapingAndPolicing.R10.pppg$o[0].channel packetBytes:sum 16291
attr interpolationmode none
attr source packetBytes(messageSent)
attr unit B
scalar NetworkWithShapingAndPolicing.R10.pppg$o[0].channel throughput:last 105.09394059457
attr source sumPerDuration(packetBits(messageSent))
attr unit bps
scalar NetworkWithShapingAndPolicing.R10.pppg$o[1].channel packetsDiscarded:count 0
attr interpolationmode none
attr source constant1(messageDiscarded)
scalar NetworkWithShapingAndPolicing.R10.pppg$o[1].channel utilization:last 0.0089164233920441
attr source timeavg(channelBusy)
scalar NetworkWithShapingAndPolicing.R10.pppg$o[1].channel packets:count 221
attr interpolationmode none
attr source constant1(messageSent)
scalar NetworkWithShapingAndPolicing.R10.pppg$o[1].channel packetBytes:sum 22115
attr interpolationmode none
attr source packetBytes(messageSent)
attr unit B
scalar NetworkWithShapingAndPolicing.R10.pppg$o[1].channel throughput:last 142.66708835873
attr source sumPerDuration(packetBits(messageSent))
attr unit bps
scalar NetworkWithShapingAndPolicing.R14.pppg$o[0].channel packetsDiscarded:count 0
attr interpolationmode none
attr source constant1(messageDiscarded)
scalar NetworkWithShapingAndPolicing.R14.pppg$o[0].channel utilization:last 0.0064093541497233
attr source timeavg(channelBusy)
scalar NetworkWithShapingAndPolicing.R14.pppg$o[0].channel packets:count 199
attr interpolationmode none
attr source constant1(messageSent)
scalar NetworkWithShapingAndPolicing.R14.pppg$o[0].channel packetBytes:sum 15897
attr interpolationmode none
attr source packetBytes(messageSent)
attr unit B
scalar NetworkWithShapingAndPolicing.R14.pppg$o[0].channel throughput:last 102.55276743825
attr source sumPerDuration(packetBits(messageSent))
attr unit bps
scalar NetworkWithShapingAndPolicing.R14.pppg$o[1].channel packetsDiscarded:count 0
attr interpolationmode none
attr source constant1(messageDiscarded)
scalar NetworkWithShapingAndPolicing.R14.pppg$o[1].channel utilization:last 0.010754061733469
attr source timeavg(channelBusy)
scalar NetworkWithShapingAndPolicing.R14.pppg$o[1].channel packets:count 291
attr interpolationmode none
attr source constant1(messageSent)
scalar NetworkWithShapingAndPolicing.R14.pppg$o[1].channel packetBytes:sum 26673
attr interpolationmode none
attr source packetBytes(messageSent)
attr unit B
scalar NetworkWithShapingAndPolicing.R14.pppg$o[1].channel throughput:last 172.07019090009
attr source sumPerDuration(packetBits(messageSent))
attr unit bps
scalar NetworkWithShapingAndPolicing.R8.pppg$o[0].channel packetsDiscarded:count 0
attr interpolationmode none
attr source constant1(messageDiscarded)
scalar NetworkWithShapingAndPolicing.R8.pppg$o[0].channel utilization:last 0.0048118286415581
attr source timeavg(channelBusy)
scalar NetworkWithShapingAndPolicing.R8.pppg$o[0].channel packets:count 259
attr interpolationmode none
attr source constant1(messageSent)
scalar NetworkWithShapingAndPolicing.R8.pppg$o[0].channel packetBytes:sum 23869
attr interpolationmode none
attr source packetBytes(messageSent)
attr unit B
scalar NetworkWithShapingAndPolicing.R8.pppg$o[0].channel throughput:last 153.98084464197
attr source sumPerDuration(packetBits(messageSent))
attr unit bps
scalar NetworkWithShapingAndPolicing.R8.pppg$o[1].channel packetsDiscarded:count 0
attr interpolationmode none
attr source constant1(messageDiscarded)
scalar NetworkWithShapingAndPolicing.R8.pppg$o[1].channel utilization:last 0.014678916127612
attr source timeavg(channelBusy)
scalar NetworkWithShapingAndPolicing.R8.pppg$o[1].channel packets:count 376
attr interpolationmode none
attr source constant1(messageSent)
scalar NetworkWithShapingAndPolicing.R8.pppg$o[1].channel packetBytes:sum 36408
attr interpolationmode none
attr source packetBytes(messageSent)
attr unit B
scalar NetworkWithShapingAndPolicing.R8.pppg$o[1].channel throughput:last 234.86976012137
attr source sumPerDuration(packetBits(messageSent))
attr unit bps
scalar NetworkWithShapingAndPolicing.R8.pppg$o[2].channel packetsDiscarded:count 0
attr interpolationmode none
attr source constant1(messageDiscarded)
scalar NetworkWithShapingAndPolicing.R8.pppg$o[2].channel utilization:last 0.99850019928354
attr source timeavg(channelBusy)
scalar NetworkWithShapingAndPolicing.R8.pppg$o[2].channel packets:count 5508
attr interpolationmode none
attr source constant1(messageSent)
scalar NetworkWithShapingAndPolicing.R8.pppg$o[2].channel packetBytes:sum 2496358
attr interpolationmode none
attr source packetBytes(messageSent)
attr unit B
scalar NetworkWithShapingAndPolicing.R8.pppg$o[2].channel throughput:last 15979.422637721
attr source sumPerDuration(packetBits(messageSent))
attr unit bps
scalar NetworkWithShapingAndPolicing.R15.pppg$o[0].channel packetsDiscarded:count 0
attr interpolationmode none
attr source constant1(messageDiscarded)
scalar NetworkWithShapingAndPolicing.R15.pppg$o[0].channel utilization:last 0.0032212428621553
attr source timeavg(channelBusy)
scalar NetworkWithShapingAndPolicing.R15.pppg$o[0].channel packets:count 201
attr interpolationmode none
attr source constant1(messageSent)
scalar NetworkWithShapingAndPolicing.R15.pppg$o[0].channel packetBytes:sum 15979
attr interpolationmode none
attr source packetBytes(messageSent)
attr unit B
scalar NetworkWithShapingAndPolicing.R15.pppg$o[0].channel throughput:last 103.08133011891
attr source sumPerDuration(packetBits(messageSent))
attr unit bps
scalar NetworkWithShapingAndPolicing.R15.pppg$o[1].channel packetsDiscarded:count 0
attr interpolationmode none
attr source constant1(messageDiscarded)
scalar NetworkWithShapingAndPolicing.R15.pppg$o[1].channel utilization:last 0.0048876273831681
attr source timeavg(channelBusy)
scalar NetworkWithShapingAndPolicing.R15.pppg$o[1].channel packets:count 247
attr interpolationmode none
attr source constant1(messageSent)
scalar NetworkWithShapingAndPolicing.R15.pppg$o[1].channel packetBytes:sum 24245
attr interpolationmode none
attr source packetBytes(messageSent)
attr unit B
scalar NetworkWithShapingAndPolicing.R15.pppg$o[1].channel throughput:last 156.40644104712
attr source sumPerDuration(packetBits(messageSent))
attr unit bps
scalar NetworkWithShapingAndPolicing.R15.pppg$o[2].channel packetsDiscarded:count 0
attr interpolationmode none
attr source constant1(messageDiscarded)
scalar NetworkWithShapingAndPolicing.R15.pppg$o[2].channel utilization:last 0.010975085409574
attr source timeavg(channelBusy)
scalar NetworkWithShapingAndPolicing.R15.pppg$o[2].channel packets:count 291
attr interpolationmode none
attr source constant1(messageSent)
scalar NetworkWithShapingAndPolicing.R15.pppg$o[2].channel packetBytes:sum 27221
attr interpolationmode none
attr source packetBytes(messageSent)
attr unit B
scalar NetworkWithShapingAndPolicing.R15.pppg$o[2].channel throughput:last 175.60667669502
attr source sumPerDuration(packetBits(messageSent))
attr unit bps
scalar NetworkWithShapingAndPolicing.R15.ethg$o[0].channel packetsDiscarded:count 0
attr interpolationmode none
attr source constant1(messageDiscarded)
scalar NetworkWithShapingAndPolicing.R15.ethg$o[0].channel utilization:last 0.00016369159404849
attr source timeavg(channelBusy)
scalar NetworkWithShapingAndPolicing.R15.ethg$o[0].channel packets:count 5264
attr interpolationmode none
attr source constant1(messageSent)
scalar NetworkWithShapingAndPolicing.R15.ethg$o[0].channel packetBytes:sum 2557530
attr interpolationmode none
attr source packetBytes(messageSent)
attr unit B
scalar NetworkWithShapingAndPolicing.R15.ethg$o[0].channel throughput:last 16369.159985269
attr source sumPerDuration(packetBits(messageSent))
attr unit bps
scalar NetworkWithShapingAndPolicing.H1.ethg$o[0].channel packetsDiscarded:count 0
attr interpolationmode none
attr source constant1(messageDiscarded)
scalar NetworkWithShapingAndPolicing.H1.ethg$o[0].channel utilization:last 0.0014353527724041
attr source timeavg(channelBusy)
scalar NetworkWithShapingAndPolicing.H1.ethg$o[0].channel packets:count 51812
attr interpolationmode none
attr source constant1(messageSent)
scalar NetworkWithShapingAndPolicing.H1.ethg$o[0].channel packetBytes:sum 21530164
attr interpolationmode none
attr source packetBytes(messageSent)
attr unit B
scalar NetworkWithShapingAndPolicing.H1.ethg$o[0].channel throughput:last 143535.28254167
attr source sumPerDuration(packetBits(messageSent))
attr unit bps
scalar NetworkWithShapingAndPolicing.H2.ethg$o[0].channel packetsDiscarded:count 0
attr interpolationmode none
attr source constant1(messageDiscarded)
scalar NetworkWithShapingAndPolicing.H2.ethg$o[0].channel utilization:last 1.6094945637915e-07
attr source timeavg(channelBusy)
scalar NetworkWithShapingAndPolicing.H2.ethg$o[0].channel packets:count 31
attr interpolationmode none
attr source constant1(messageSent)
scalar NetworkWithShapingAndPolicing.H2.ethg$o[0].channel packetBytes:sum 2420
attr interpolationmode none
attr source packetBytes(messageSent)
attr unit B
scalar NetworkWithShapingAndPolicing.H2.ethg$o[0].channel throughput:last 16.094945714987
attr source sumPerDuration(packetBits(messageSent))
attr unit bps
scalar NetworkWithShapingAndPolicing.R1.lo[0].lo rcvdPkFromHl:count 0
attr interpolationmode none
attr source packetReceivedFromUpper
attr title "packets received from higher layer, count"
scalar NetworkWithShapingAndPolicing.R1.lo[0].lo rcvdPkFromHl:sum(packetBytes) 0
attr interpolationmode none
attr source packetReceivedFromUpper
attr title "packets received from higher layer, sum(packetBytes)"
scalar NetworkWithShapingAndPolicing.R1.lo[0].lo passedUpPk:count 0
attr interpolationmode none
attr source packetSentToUpper
attr title "packets passed to higher layer, count"
scalar NetworkWithShapingAndPolicing.R1.lo[0].lo passedUpPk:sum(packetBytes) 0
attr interpolationmode none
attr source packetSentToUpper
attr title "packets passed to higher layer, sum(packetBytes)"
scalar NetworkWithShapingAndPolicing.R1.ppp[0].ppp.queue packetPopped:count 6603
attr interpolationmode none
attr title "packet popped, count"
scalar NetworkWithShapingAndPolicing.R1.ppp[0].ppp.queue packetPopped:sum(packetBytes) 2699762
attr interpolationmode none
attr title "packet popped, sum(packetBytes)"
statistic NetworkWithShapingAndPolicing.R1.ppp[0].ppp.queue queueingTime:histogram
field count 6603
field mean 8.7364409934984
field stddev 3.4997073759198
field min 0
field max 12.718076654843
field sum 57686.71988007
field sqrsum 584837.60157678
attr interpolationmode none
attr source queueingTime(packetPopped)
attr title "queueing times, histogram"
attr unit s
bin	-inf	0
bin	0	225
bin	0.2	39
bin	0.4	39
bin	0.6	41
bin	0.8	38
bin	1	40
bin	1.2	36
bin	1.4	41
bin	1.6	40
bin	1.8	38
bin	2	43
bin	2.2	44
bin	2.4	39
bin	2.6	41
bin	2.8	41
bin	3	43
bin	3.2	43
bin	3.4	41
bin	3.6	45
bin	3.8	39
bin	4	40
bin	4.2	40
bin	4.4	40
bin	4.6	42
bin	4.8	44
bin	5	40
bin	5.2	42
bin	5.4	42
bin	5.6	44
bin	5.8	41
bin	6	44
bin	6.2	39
bin	6.4	42
bin	6.6	40
bin	6.8	40
bin	7	39
bin	7.2	42
bin	7.4	40
bin	7.6	40
bin	7.8	39
bin	8	46
bin	8.2	51
bin	8.4	58
bin	8.6	82
bin	8.8	83
bin	9	96
bin	9.2	101
bin	9.4	173
bin	9.6	157
bin	9.8	137
bin	10	154
bin	10.2	274
bin	10.4	463
bin	10.6	420
bin	10.8	520
bin	11	471
bin	11.2	528
bin	11.4	352
bin	11.6	275
bin	11.8	180
bin	12	95
bin	12.2	33
bin	12.4	24
bin	12.6	14
bin	12.8	0
bin	13	0
bin	13.2	0
bin	13.4	0
bin	13.6	0
bin	13.8	0
bin	14	0
bin	14.2	0
bin	14.4	0
bin	14.6	0
bin	14.8	0
scalar NetworkWithShapingAndPolicing.R1.ppp[0].ppp.queue queueLength:max 101
attr interpolationmode sample-hold
attr source "count(packetPushed) - count(packetPopped) - count(packetRemoved) - count(packetDropped)"
attr title "queue length, max"
scalar NetworkWithShapingAndPolicing.R1.ppp[0].ppp.queue queueLength:timeavg 46.153394860739
attr interpolationmode sample-hold
attr source "count(packetPushed) - count(packetPopped) - count(packetRemoved) - count(packetDropped)"
attr title "queue length, timeavg"
scalar NetworkWithShapingAndPolicing.R1.ppp[0].ppp.queue packetPushed:count 22974
attr interpolationmode none
attr title "packet pushed, count"
scalar NetworkWithShapingAndPolicing.R1.ppp[0].ppp.queue packetPushed:sum(packetBytes) 8806620
attr interpolationmode none
attr title "packet pushed, sum(packetBytes)"
scalar NetworkWithShapingAndPolicing.R1.ppp[0].ppp.queue packetDropQueueOverflow:count 16371
attr interpolationmode none
attr source packetDropReasonIsQueueOverflow(packetDropped)
attr title "packet drops: queue overflow, count"
scalar NetworkWithShapingAndPolicing.R1.ppp[0].ppp.queue packetDropQueueOverflow:sum(packetBytes) 6106858
attr interpolationmode none
attr source packetDropReasonIsQueueOverflow(packetDropped)
attr title "packet drops: queue overflow, sum(packetBytes)"
scalar NetworkWithShapingAndPolicing.R1.ppp[0].ppp.queue packetRemoved:count 0
attr interpolationmode none
attr title "packets removed, count"
scalar NetworkWithShapingAndPolicing.R1.ppp[0].ppp.queue packetRemoved:sum(packetBytes) 0
attr interpolationmode none
attr title "packets removed, sum(packetBytes)"
scalar NetworkWithShapingAndPolicing.R1.ppp[0].ppp transmissionState:timeavg 0.54919659999999
attr interpolationmode sample-hold
attr source transmissionStateChanged
attr title "tx state, timeavg"
scalar NetworkWithShapingAndPolicing.R1.ppp[0].ppp rxPkOk:count 634
attr interpolationmode none
attr source rxPkOk
attr title "packets received OK, count"
scalar NetworkWithShapingAndPolicing.R1.ppp[0].ppp rxPkOk:sum(packetBytes) 152342
attr interpolationmode none
attr source rxPkOk
attr title "packets received OK, sum(packetBytes)"
scalar NetworkWithShapingAndPolicing.R1.ppp[0].ppp txPk:count 6603
attr interpolationmode none
attr source packetSentToLower
attr title "packets transmitted, count"
scalar NetworkWithShapingAndPolicing.R1.ppp[0].ppp txPk:sum(packetBytes) 2745983
attr interpolationmode none
attr source packetSentToLower
attr title "packets transmitted, sum(packetBytes)"
scalar NetworkWithShapingAndPolicing.R1.ppp[0].ppp rcvdPkFromHl:count 22974
attr interpolationmode none
attr source packetReceivedFromUpper
attr title "packets received from higher layer, count"
scalar NetworkWithShapingAndPolicing.R1.ppp[0].ppp rcvdPkFromHl:sum(packetBytes) 8806620
attr interpolationmode none
attr source packetReceivedFromUpper
attr title "packets received from higher layer, sum(packetBytes)"
scalar NetworkWithShapingAndPolicing.R1.ppp[0].ppp passedUpPk:count 634
attr interpolationmode none
attr source packetSentToUpper
attr title "packets passed to higher layer, count"
scalar NetworkWithShapingAndPolicing.R1.ppp[0].ppp passedUpPk:sum(packetBytes) 147904
attr interpolationmode none
attr source packetSentToUpper
attr title "packets passed to higher layer, sum(packetBytes)"
scalar NetworkWithShapingAndPolicing.R1.ppp[0].ppp packetDropIncorrectlyReceived:count 0
attr interpolationmode none
attr source packetDropReasonIsIncorrectlyReceived(packetDropped)
attr title "packet drop: incorrectly received, count"
scalar NetworkWithShapingAndPolicing.R1.ppp[0].ppp packetDropIncorrectlyReceived:sum(packetBytes) 0
attr interpolationmode none
attr source packetDropReasonIsIncorrectlyReceived(packetDropped)
attr title "packet drop: incorrectly received, sum(packetBytes)"
scalar NetworkWithShapingAndPolicing.R1.ppp[0].ppp packetDropInterfaceDown:count 0
attr interpolationmode none
attr source packetDropReasonIsInterfaceDown(packetDropped)
attr title "packet drop: interface down, count"
scalar NetworkWithShapingAndPolicing.R1.ppp[0].ppp packetDropInterfaceDown:sum(packetBytes) 0
attr interpolationmode none
attr source packetDropReasonIsInterfaceDown(packetDropped)
attr title "packet drop: interface down, sum(packetBytes)"
scalar NetworkWithShapingAndPolicing.R1.ppp[1].ppp.queue packetPopped:count 7982
attr interpolationmode none
attr title "packet popped, count"
scalar NetworkWithShapingAndPolicing.R1.ppp[1].ppp.queue packetPopped:sum(packetBytes) 3314984
attr interpolationmode none
attr title "packet popped, sum(packetBytes)"
statistic NetworkWithShapingAndPolicing.R1.ppp[1].ppp.queue queueingTime:histogram
field count 7982
field mean 9.3360267752737
field stddev 3.11802050871
field min 0
field max 12.708903968009
field sum 74520.165720234
field sqrsum 773313.95861786
attr interpolationmode none
attr source queueingTime(packetPopped)
attr title "queueing times, histogram"
attr unit s
bin	-inf	0
bin	0	158
bin	0.2	30
bin	0.4	35
bin	0.6	40
bin	0.8	36
bin	1	35
bin	1.2	36
bin	1.4	37
bin	1.6	38
bin	1.8	40
bin	2	36
bin	2.2	36
bin	2.4	33
bin	2.6	34
bin	2.8	35
bin	3	33
bin	3.2	34
bin	3.4	34
bin	3.6	33
bin	3.8	36
bin	4	32
bin	4.2	33
bin	4.4	37
bin	4.6	39
bin	4.8	37
bin	5	38
bin	5.2	37
bin	5.4	44
bin	5.6	50
bin	5.8	43
bin	6	44
bin	6.2	40
bin	6.4	45
bin	6.6	44
bin	6.8	43
bin	7	42
bin	7.2	41
bin	7.4	40
bin	7.6	42
bin	7.8	57
bin	8	58
bin	8.2	57
bin	8.4	57
bin	8.6	83
bin	8.8	102
bin	9	112
bin	9.2	148
bin	9.4	218
bin	9.6	164
bin	9.8	203
bin	10	255
bin	10.2	377
bin	10.4	483
bin	10.6	522
bin	10.8	547
bin	11	606
bin	11.2	660
bin	11.4	580
bin	11.6	558
bin	11.8	208
bin	12	155
bin	12.2	134
bin	12.4	33
bin	12.6	5
bin	12.8	0
bin	13	0
bin	13.2	0
bin	13.4	0
bin	13.6	0
bin	13.8	0
scalar NetworkWithShapingAndPolicing.R1.ppp[1].ppp.queue queueLength:max 101
attr interpolationmode sample-hold
attr source "count(packetPushed) - count(packetPopped) - count(packetRemoved) - count(packetDropped)"
attr title "queue length, max"
scalar NetworkWithShapingAndPolicing.R1.ppp[1].ppp.queue queueLength:timeavg 59.621308931938
attr interpolationmode sample-hold
attr source "count(packetPushed) - count(packetPopped) - count(packetRemoved) - count(packetDropped)"
attr title "queue length, timeavg"
scalar NetworkWithShapingAndPolicing.R1.ppp[1].ppp.queue packetPushed:count 29927
attr interpolationmode none
attr title "packet pushed, count"
scalar NetworkWithShapingAndPolicing.R1.ppp[1].ppp.queue packetPushed:sum(packetBytes) 11581344
attr interpolationmode none
attr title "packet pushed, sum(packetBytes)"
scalar NetworkWithShapingAndPolicing.R1.ppp[1].ppp.queue packetDropQueueOverflow:count 21945
attr interpolationmode none
attr source packetDropReasonIsQueueOverflow(packetDropped)
attr title "packet drops: queue overflow, count"
scalar NetworkWithShapingAndPolicing.R1.ppp[1].ppp.queue packetDropQueueOverflow:sum(packetBytes) 8266360
attr interpolationmode none
attr source packetDropReasonIsQueueOverflow(packetDropped)
attr title "packet drops: queue overflow, sum(packetBytes)"
scalar NetworkWithShapingAndPolicing.R1.ppp[1].ppp.queue packetRemoved:count 0
attr interpolationmode none
attr title "packets removed, count"
scalar NetworkWithShapingAndPolicing.R1.ppp[1].ppp.queue packetRemoved:sum(packetBytes) 0
attr interpolationmode none
attr title "packets removed, sum(packetBytes)"
scalar NetworkWithShapingAndPolicing.R1.ppp[1].ppp transmissionState:timeavg 0.67417159999995
attr interpolationmode sample-hold
attr source transmissionStateChanged
attr title "tx state, timeavg"
scalar NetworkWithShapingAndPolicing.R1.ppp[1].ppp rxPkOk:count 357
attr interpolationmode none
attr source rxPkOk
attr title "packets received OK, count"
scalar NetworkWithShapingAndPolicing.R1.ppp[1].ppp rxPkOk:sum(packetBytes) 50247
attr interpolationmode none
attr source rxPkOk
attr title "packets received OK, sum(packetBytes)"
scalar NetworkWithShapingAndPolicing.R1.ppp[1].ppp txPk:count 7982
attr interpolationmode none
attr source packetSentToLower
attr title "packets transmitted, count"
scalar NetworkWithShapingAndPolicing.R1.ppp[1].ppp txPk:sum(packetBytes) 3370858
attr interpolationmode none
attr source packetSentToLower
attr title "packets transmitted, sum(packetBytes)"
scalar NetworkWithShapingAndPolicing.R1.ppp[1].ppp rcvdPkFromHl:count 29927
attr interpolationmode none
attr source packetReceivedFromUpper
attr title "packets received from higher layer, count"
scalar NetworkWithShapingAndPolicing.R1.ppp[1].ppp rcvdPkFromHl:sum(packetBytes) 11581344
attr interpolationmode none
attr source packetReceivedFromUpper
attr title "packets received from higher layer, sum(packetBytes)"
scalar NetworkWithShapingAndPolicing.R1.ppp[1].ppp passedUpPk:count 357
attr interpolationmode none
attr source packetSentToUpper
attr title "packets passed to higher layer, count"
scalar NetworkWithShapingAndPolicing.R1.ppp[1].ppp passedUpPk:sum(packetBytes) 47748
attr interpolationmode none
attr source packetSentToUpper
attr title "packets passed to higher layer, sum(packetBytes)"
scalar NetworkWithShapingAndPolicing.R1.ppp[1].ppp packetDropIncorrectlyReceived:count 0
attr interpolationmode none
attr source packetDropReasonIsIncorrectlyReceived(packetDropped)
attr title "packet drop: incorrectly received, count"
scalar NetworkWithShapingAndPolicing.R1.ppp[1].ppp packetDropIncorrectlyReceived:sum(packetBytes) 0
attr interpolationmode none
attr source packetDropReasonIsIncorrectlyReceived(packetDropped)
attr title "packet drop: incorrectly received, sum(packetBytes)"
scalar NetworkWithShapingAndPolicing.R1.ppp[1].ppp packetDropInterfaceDown:count 0
attr interpolationmode none
attr source packetDropReasonIsInterfaceDown(packetDropped)
attr title "packet drop: interface down, count"
scalar NetworkWithShapingAndPolicing.R1.ppp[1].ppp packetDropInterfaceDown:sum(packetBytes) 0
attr interpolationmode none
attr source packetDropReasonIsInterfaceDown(packetDropped)
attr title "packet drop: interface down, sum(packetBytes)"
scalar NetworkWithShapingAndPolicing.R1.eth[0].ingressTC.classifier packetPushed:count 0
attr interpolationmode none
attr title "packets pushed, count"
scalar NetworkWithShapingAndPolicing.R1.eth[0].ingressTC.classifier packetPushed:sum(packetBytes) 0
attr interpolationmode none
attr title "packets pushed, sum(packetBytes)"
scalar NetworkWithShapingAndPolicing.R1.eth[0].ingressTC.classifier packetDropped:count 0
attr interpolationmode none
attr title "packets dropped, count"
scalar NetworkWithShapingAndPolicing.R1.eth[0].ingressTC.classifier packetDropped:sum(packetBytes) 0
attr interpolationmode none
attr title "packets dropped, sum(packetBytes)"
scalar NetworkWithShapingAndPolicing.R1.eth[0].ingressTC.marker packetMarked:count 51802
attr interpolationmode none
attr source packetMarked
attr title "packets marked, count"
scalar NetworkWithShapingAndPolicing.R1.eth[0].ingressTC.marker packetMarked:sum(packetBytes) 20182592
attr interpolationmode none
attr source packetMarked
attr title "packets marked, sum(packetBytes)"
scalar NetworkWithShapingAndPolicing.R1.eth[0].mac.queue.classifier packetPushed:count 155
attr interpolationmode none
attr title "packets pushed, count"
scalar NetworkWithShapingAndPolicing.R1.eth[0].mac.queue.classifier packetPushed:sum(packetBytes) 12358
attr interpolationmode none
attr title "packets pushed, sum(packetBytes)"
scalar NetworkWithShapingAndPolicing.R1.eth[0].mac.queue.classifier packetDropped:count 0
attr interpolationmode none
attr title "packets dropped, count"
scalar NetworkWithShapingAndPolicing.R1.eth[0].mac.queue.classifier packetDropped:sum(packetBytes) 0
attr interpolationmode none
attr title "packets dropped, sum(packetBytes)"
scalar NetworkWithShapingAndPolicing.R1.eth[0].mac.queue.pauseQueue packetPopped:count 0
attr interpolationmode none
attr title "packet popped, count"
scalar NetworkWithShapingAndPolicing.R1.eth[0].mac.queue.pauseQueue packetPopped:sum(packetBytes) 0
attr interpolationmode none
attr title "packet popped, sum(packetBytes)"
statistic NetworkWithShapingAndPolicing.R1.eth[0].mac.queue.pauseQueue queueingTime:histogram
field count 0
field mean nan
field stddev nan
field min nan
field max nan
field sum 0
field sqrsum 0
attr interpolationmode none
attr source queueingTime(packetPopped)
attr title "queueing times, histogram"
attr unit s
bin	-inf	0
bin	0	0
bin	1	0
scalar NetworkWithShapingAndPolicing.R1.eth[0].mac.queue.pauseQueue queueLength:max nan
attr interpolationmode sample-hold
attr source "count(packetPushed) - count(packetPopped) - count(packetRemoved) - count(packetDropped)"
attr title "queue length, max"
scalar NetworkWithShapingAndPolicing.R1.eth[0].mac.queue.pauseQueue queueLength:timeavg nan
attr interpolationmode sample-hold
attr source "count(packetPushed) - count(packetPopped) - count(packetRemoved) - count(packetDropped)"
attr title "queue length, timeavg"
scalar NetworkWithShapingAndPolicing.R1.eth[0].mac.queue.pauseQueue packetPushed:count 0
attr interpolationmode none
attr title "packet pushed, count"
scalar NetworkWithShapingAndPolicing.R1.eth[0].mac.queue.pauseQueue packetPushed:sum(packetBytes) 0
attr interpolationmode none
attr title "packet pushed, sum(packetBytes)"
scalar NetworkWithShapingAndPolicing.R1.eth[0].mac.queue.pauseQueue packetDropQueueOverflow:count 0
attr interpolationmode none
attr source packetDropReasonIsQueueOverflow(packetDropped)
attr title "packet drops: queue overflow, count"
scalar NetworkWithShapingAndPolicing.R1.eth[0].mac.queue.pauseQueue packetDropQueueOverflow:sum(packetBytes) 0
attr interpolationmode none
attr source packetDropReasonIsQueueOverflow(packetDropped)
attr title "packet drops: queue overflow, sum(packetBytes)"
scalar NetworkWithShapingAndPolicing.R1.eth[0].mac.queue.pauseQueue packetRemoved:count 0
attr interpolationmode none
attr title "packets removed, count"
scalar NetworkWithShapingAndPolicing.R1.eth[0].mac.queue.pauseQueue packetRemoved:sum(packetBytes) 0
attr interpolationmode none
attr title "packets removed, sum(packetBytes)"
scalar NetworkWithShapingAndPolicing.R1.eth[0].mac.queue.dataQueue packetPopped:count 155
attr interpolationmode none
attr title "packet popped, count"
scalar NetworkWithShapingAndPolicing.R1.eth[0].mac.queue.dataQueue packetPopped:sum(packetBytes) 12358
attr interpolationmode none
attr title "packet popped, sum(packetBytes)"
statistic NetworkWithShapingAndPolicing.R1.eth[0].mac.queue.dataQueue queueingTime:histogram
field count 155
field mean 0
field stddev 0
field min 0
field max 0
field sum 0
field sqrsum 0
attr interpolationmode none
attr source queueingTime(packetPopped)
attr title "queueing times, histogram"
attr unit s
bin	-inf	0
bin	-0.5	0
bin	-0.48	0
bin	-0.46	0
bin	-0.44	0
bin	-0.42	0
bin	-0.4	0
bin	-0.38	0
bin	-0.36	0
bin	-0.34	0
bin	-0.32	0
bin	-0.3	0
bin	-0.28	0
bin	-0.26	0
bin	-0.24	0
bin	-0.22	0
bin	-0.2	0
bin	-0.18	0
bin	-0.16	0
bin	-0.14	0
bin	-0.12	0
bin	-0.1	0
bin	-0.08	0
bin	-0.06	0
bin	-0.04	0
bin	-0.02	0
bin	0	155
bin	0.02	0
bin	0.04	0
bin	0.06	0
bin	0.08	0
bin	0.1	0
bin	0.12	0
bin	0.14	0
bin	0.16	0
bin	0.18	0
bin	0.2	0
bin	0.22	0
bin	0.24	0
bin	0.26	0
bin	0.28	0
bin	0.3	0
bin	0.32	0
bin	0.34	0
bin	0.36	0
bin	0.38	0
bin	0.4	0
bin	0.42	0
bin	0.44	0
bin	0.46	0
bin	0.48	0
bin	0.5	0
scalar NetworkWithShapingAndPolicing.R1.eth[0].mac.queue.dataQueue queueLength:max 1
attr interpolationmode sample-hold
attr source "count(packetPushed) - count(packetPopped) - count(packetRemoved) - count(packetDropped)"
attr title "queue length, max"
scalar NetworkWithShapingAndPolicing.R1.eth[0].mac.queue.dataQueue queueLength:timeavg 0
attr interpolationmode sample-hold
attr source "count(packetPushed) - count(packetPopped) - count(packetRemoved) - count(packetDropped)"
attr title "queue length, timeavg"
scalar NetworkWithShapingAndPolicing.R1.eth[0].mac.queue.dataQueue packetPushed:count 155
attr interpolationmode none
attr title "packet pushed, count"
scalar NetworkWithShapingAndPolicing.R1.eth[0].mac.queue.dataQueue packetPushed:sum(packetBytes) 12358
attr interpolationmode none
attr title "packet pushed, sum(packetBytes)"
scalar NetworkWithShapingAndPolicing.R1.eth[0].mac.queue.dataQueue packetDropQueueOverflow:count 0
attr interpolationmode none
attr source packetDropReasonIsQueueOverflow(packetDropped)
attr title "packet drops: queue overflow, count"
scalar NetworkWithShapingAndPolicing.R1.eth[0].mac.queue.dataQueue packetDropQueueOverflow:sum(packetBytes) 0
attr interpolationmode none
attr source packetDropReasonIsQueueOverflow(packetDropped)
attr title "packet drops: queue overflow, sum(packetBytes)"
scalar NetworkWithShapingAndPolicing.R1.eth[0].mac.queue.dataQueue packetRemoved:count 0
attr interpolationmode none
attr title "packets removed, count"
scalar NetworkWithShapingAndPolicing.R1.eth[0].mac.queue.dataQueue packetRemoved:sum(packetBytes) 0
attr interpolationmode none
attr title "packets removed, sum(packetBytes)"
scalar NetworkWithShapingAndPolicing.R1.eth[0].mac.queue.scheduler packetPopped:count 155
attr interpolationmode none
attr title "packets popped, count"
scalar NetworkWithShapingAndPolicing.R1.eth[0].mac.queue.scheduler packetPopped:sum(packetBytes) 12358
attr interpolationmode none
attr title "packets popped, sum(packetBytes)"
scalar NetworkWithShapingAndPolicing.R1.eth[0].mac.queue packetPopped:count 155
attr interpolationmode none
attr source localSignal(packetPopped)
attr title "packets popped, count"
scalar NetworkWithShapingAndPolicing.R1.eth[0].mac.queue packetPopped:sum(packetBytes) 12358
attr interpolationmode none
attr source localSignal(packetPopped)
attr title "packets popped, sum(packetBytes)"
statistic NetworkWithShapingAndPolicing.R1.eth[0].mac.queue queueingTime:histogram
field count 465
field mean 0
field stddev 0
field min 0
field max 0
field sum 0
field sqrsum 0
attr interpolationmode none
attr source queueingTime(packetPopped)
attr title "queueing times, histogram"
attr unit s
bin	-inf	0
bin	-0.5	0
bin	-0.48	0
bin	-0.46	0
bin	-0.44	0
bin	-0.42	0
bin	-0.4	0
bin	-0.38	0
bin	-0.36	0
bin	-0.34	0
bin	-0.32	0
bin	-0.3	0
bin	-0.28	0
bin	-0.26	0
bin	-0.24	0
bin	-0.22	0
bin	-0.2	0
bin	-0.18	0
bin	-0.16	0
bin	-0.14	0
bin	-0.12	0
bin	-0.1	0
bin	-0.08	0
bin	-0.06	0
bin	-0.04	0
bin	-0.02	0
bin	0	465
bin	0.02	0
bin	0.04	0
bin	0.06	0
bin	0.08	0
bin	0.1	0
bin	0.12	0
bin	0.14	0
bin	0.16	0
bin	0.18	0
bin	0.2	0
bin	0.22	0
bin	0.24	0
bin	0.26	0
bin	0.28	0
bin	0.3	0
bin	0.32	0
bin	0.34	0
bin	0.36	0
bin	0.38	0
bin	0.4	0
bin	0.42	0
bin	0.44	0
bin	0.46	0
bin	0.48	0
bin	0.5	0
scalar NetworkWithShapingAndPolicing.R1.eth[0].mac.queue queueLength:max 1
attr interpolationmode sample-hold
attr source "count(localSignal(packetPushed)) - count(localSignal(packetPopped)) - count(localSignal(packetRemoved)) - count(packetDropped)"
attr title "queue length, max"
scalar NetworkWithShapingAndPolicing.R1.eth[0].mac.queue queueLength:timeavg 0
attr interpolationmode sample-hold
attr source "count(localSignal(packetPushed)) - count(localSignal(packetPopped)) - count(localSignal(packetRemoved)) - count(packetDropped)"
attr title "queue length, timeavg"
scalar NetworkWithShapingAndPolicing.R1.eth[0].mac.queue packetPushed:count 155
attr interpolationmode none
attr source localSignal(packetPushed)
attr title "packets pushed, count"
scalar NetworkWithShapingAndPolicing.R1.eth[0].mac.queue packetPushed:sum(packetBytes) 12358
attr interpolationmode none
attr source localSignal(packetPushed)
attr title "packets pushed, sum(packetBytes)"
scalar NetworkWithShapingAndPolicing.R1.eth[0].mac.queue packetDropQueueOverflow:count 0
attr interpolationmode none
attr source packetDropReasonIsQueueOverflow(packetDropped)
attr title "packets dropped: queue overflow, count"
scalar NetworkWithShapingAndPolicing.R1.eth[0].mac.queue packetDropQueueOverflow:sum(packetBytes) 0
attr interpolationmode none
attr source packetDropReasonIsQueueOverflow(packetDropped)
attr title "packets dropped: queue overflow, sum(packetBytes)"
scalar NetworkWithShapingAndPolicing.R1.eth[0].mac.queue packetRemoved:count 0
attr interpolationmode none
attr source localSignal(packetRemoved)
attr title "packets removed, count"
scalar NetworkWithShapingAndPolicing.R1.eth[0].mac.queue packetRemoved:sum(packetBytes) 0
attr interpolationmode none
attr source localSignal(packetRemoved)
attr title "packets removed, sum(packetBytes)"
scalar NetworkWithShapingAndPolicing.R1.eth[0].mac "simulated time" 1250
scalar NetworkWithShapingAndPolicing.R1.eth[0].mac full-duplex 1
scalar NetworkWithShapingAndPolicing.R1.eth[0].mac "frames/sec sent" 0.124
scalar NetworkWithShapingAndPolicing.R1.eth[0].mac "frames/sec rcvd" 41.4496
scalar NetworkWithShapingAndPolicing.R1.eth[0].mac "bits/sec sent" 79.0912
scalar NetworkWithShapingAndPolicing.R1.eth[0].mac "bits/sec rcvd" 135140.2752
scalar NetworkWithShapingAndPolicing.R1.eth[0].mac "rx channel idle (%)" 100
scalar NetworkWithShapingAndPolicing.R1.eth[0].mac "rx channel utilization (%)" 0
scalar NetworkWithShapingAndPolicing.R1.eth[0].mac rxPausePkUnits:count 0
attr interpolationmode none
attr title "pause units received, count"
scalar NetworkWithShapingAndPolicing.R1.eth[0].mac rxPausePkUnits:sum 0
attr interpolationmode none
attr title "pause units received, sum"
scalar NetworkWithShapingAndPolicing.R1.eth[0].mac txPausePkUnits:count 0
attr interpolationmode none
attr title "pause units sent, count"
scalar NetworkWithShapingAndPolicing.R1.eth[0].mac txPausePkUnits:sum 0
attr interpolationmode none
attr title "pause units sent, sum"
scalar NetworkWithShapingAndPolicing.R1.eth[0].mac rxPkOk:count 51812
attr interpolationmode none
attr source rxPkOk
attr title "packets received OK, count"
scalar NetworkWithShapingAndPolicing.R1.eth[0].mac rxPkOk:sum(packetBytes) 21115668
attr interpolationmode none
attr source rxPkOk
attr title "packets received OK, sum(packetBytes)"
scalar NetworkWithShapingAndPolicing.R1.eth[0].mac txPk:count 155
attr interpolationmode none
attr source packetSentToLower
attr title "packets transmitted, count"
scalar NetworkWithShapingAndPolicing.R1.eth[0].mac txPk:sum(packetBytes) 12358
attr interpolationmode none
attr source packetSentToLower
attr title "packets transmitted, sum(packetBytes)"
scalar NetworkWithShapingAndPolicing.R1.eth[0].mac packetReceivedFromUpper:count 155
attr interpolationmode none
attr source packetReceivedFromUpper
attr title "packet bytes from higher layer, count"
scalar NetworkWithShapingAndPolicing.R1.eth[0].mac packetReceivedFromUpper:sum(packetBytes) 12094
attr interpolationmode none
attr source packetReceivedFromUpper
attr title "packet bytes from higher layer, sum(packetBytes)"
scalar NetworkWithShapingAndPolicing.R1.eth[0].mac passedUpPk:count 51812
attr interpolationmode none
attr source packetSentToUpper
attr title "packets passed to higher layer, count"
scalar NetworkWithShapingAndPolicing.R1.eth[0].mac passedUpPk:sum(packetBytes) 21115668
attr interpolationmode none
attr source packetSentToUpper
attr title "packets passed to higher layer, sum(packetBytes)"
scalar NetworkWithShapingAndPolicing.R1.eth[0].mac packetDropIncorrectlyReceived:count 0
attr interpolationmode none
attr source packetDropReasonIsIncorrectlyReceived(packetDropped)
attr title "packet drop: incorrectly received, count"
scalar NetworkWithShapingAndPolicing.R1.eth[0].mac packetDropIncorrectlyReceived:sum(packetBytes) 0
attr interpolationmode none
attr source packetDropReasonIsIncorrectlyReceived(packetDropped)
attr title "packet drop: incorrectly received, sum(packetBytes)"
scalar NetworkWithShapingAndPolicing.R1.eth[0].mac packetDropInterfaceDown:count 0
attr interpolationmode none
attr source packetDropReasonIsInterfaceDown(packetDropped)
attr title "packet drop: interface down, count"
scalar NetworkWithShapingAndPolicing.R1.eth[0].mac packetDropInterfaceDown:sum(packetBytes) 0
attr interpolationmode none
attr source packetDropReasonIsInterfaceDown(packetDropped)
attr title "packet drop: interface down, sum(packetBytes)"
scalar NetworkWithShapingAndPolicing.R1.eth[0].mac packetDropNotAddressedToUs:count 0
attr interpolationmode none
attr source packetDropReasonIsNotAddressedToUs(packetDropped)
attr title "packet drop: not addressed to us, count"
scalar NetworkWithShapingAndPolicing.R1.eth[0].mac packetDropNotAddressedToUs:sum(packetBytes) 0
attr interpolationmode none
attr source packetDropReasonIsNotAddressedToUs(packetDropped)
attr title "packet drop: not addressed to us, sum(packetBytes)"
scalar NetworkWithShapingAndPolicing.R1.eth[0].encap pauseSent:count 0
attr title "pause sent, count"
scalar NetworkWithShapingAndPolicing.R1.eth[0].encap pauseSent:sum 0
attr title "pause sent, sum"
scalar NetworkWithShapingAndPolicing.R1.eth[0].encap decapPk:count 51812
attr interpolationmode none
attr source decapPk
attr title "packets decapsulated, count"
scalar NetworkWithShapingAndPolicing.R1.eth[0].encap decapPk:sum(packetBytes) 20183052
attr interpolationmode none
attr source decapPk
attr title "packets decapsulated, sum(packetBytes)"
scalar NetworkWithShapingAndPolicing.R1.eth[0].encap encapPk:count 155
attr interpolationmode none
attr source encapPk
attr title "packets encapsulated, count"
scalar NetworkWithShapingAndPolicing.R1.eth[0].encap encapPk:sum(packetBytes) 9304
attr interpolationmode none
attr source encapPk
attr title "packets encapsulated, sum(packetBytes)"
scalar NetworkWithShapingAndPolicing.R1.ipv4.ip packetDropAddressResolutionFailed:count 0
attr interpolationmode none
attr source packetDropReasonIsAddressResolutionFailed(packetDropped)
attr title "packet drop: address resolution failed, count"
scalar NetworkWithShapingAndPolicing.R1.ipv4.ip packetDropAddressResolutionFailed:sum(packetBytes) 0
attr interpolationmode none
attr source packetDropReasonIsAddressResolutionFailed(packetDropped)
attr title "packet drop: address resolution failed, sum(packetBytes)"
scalar NetworkWithShapingAndPolicing.R1.ipv4.ip packetDropHopLimitReached:count 0
attr interpolationmode none
attr source packetDropReasonIsHopLimitReached(packetDropped)
attr title "packet drop: hop limit reached, count"
scalar NetworkWithShapingAndPolicing.R1.ipv4.ip packetDropHopLimitReached:sum(packetBytes) 0
attr interpolationmode none
attr source packetDropReasonIsHopLimitReached(packetDropped)
attr title "packet drop: hop limit reached, sum(packetBytes)"
scalar NetworkWithShapingAndPolicing.R1.ipv4.ip packetDropForwardingDisabled:count 0
attr interpolationmode none
attr source packetDropReasonIsForwardingDisabled(packetDropped)
attr title "packet drop: forwarding disabled, count"
scalar NetworkWithShapingAndPolicing.R1.ipv4.ip packetDropForwardingDisabled:sum(packetBytes) 0
attr interpolationmode none
attr source packetDropReasonIsForwardingDisabled(packetDropped)
attr title "packet drop: forwarding disabled, sum(packetBytes)"
scalar NetworkWithShapingAndPolicing.R1.ipv4.ip packetDropNoInterfaceFound:count 0
attr interpolationmode none
attr source packetDropReasonIsNoInterfaceFound(packetDropped)
attr title "packet drop: no interface found, count"
scalar NetworkWithShapingAndPolicing.R1.ipv4.ip packetDropNoInterfaceFound:sum(packetBytes) 0
attr interpolationmode none
attr source packetDropReasonIsNoInterfaceFound(packetDropped)
attr title "packet drop: no interface found, sum(packetBytes)"
scalar NetworkWithShapingAndPolicing.R1.ipv4.ip packetDropNoRouteFound:count 0
attr interpolationmode none
attr source packetDropReasonIsNoRouteFound(packetDropped)
attr title "packet drop: no route found, count"
scalar NetworkWithShapingAndPolicing.R1.ipv4.ip packetDropNoRouteFound:sum(packetBytes) 0
attr interpolationmode none
attr source packetDropReasonIsNoRouteFound(packetDropped)
attr title "packet drop: no route found, sum(packetBytes)"
scalar NetworkWithShapingAndPolicing.R1.ipv4.ip packetDropUndefined:count 0
attr interpolationmode none
attr source packetDropReasonIsUndefined(packetDropped)
attr title "packet drop: undefined, count"
scalar NetworkWithShapingAndPolicing.R1.ipv4.ip packetDropUndefined:sum(packetBytes) 0
attr interpolationmode none
attr source packetDropReasonIsUndefined(packetDropped)
attr title "packet drop: undefined, sum(packetBytes)"
scalar NetworkWithShapingAndPolicing.R1.ipv4.arp arpResolutionFailed:count 0
attr title "ARP failed resolutions, count"
scalar NetworkWithShapingAndPolicing.R1.ipv4.arp arpResolutionCompleted:count 10
attr title "ARP completed resolutions, count"
scalar NetworkWithShapingAndPolicing.R1.ipv4.arp arpResolutionInitiated:count 0
attr title "ARP initiated resolutions, count"
scalar NetworkWithShapingAndPolicing.R1.ipv4.arp arpReplySent:count 10
attr source arpReplySent
attr title "ARP replies sent, count"
scalar NetworkWithShapingAndPolicing.R1.ipv4.arp arpReplySent:sum(packetBytes) 280
attr source arpReplySent
attr title "ARP replies sent, sum(packetBytes)"
scalar NetworkWithShapingAndPolicing.R1.ipv4.arp arpRequestSent:count 0
attr source arpRequestSent
attr title "ARP request sent, count"
scalar NetworkWithShapingAndPolicing.R1.ipv4.arp arpRequestSent:sum(packetBytes) 0
attr source arpRequestSent
attr title "ARP request sent, sum(packetBytes)"
scalar NetworkWithShapingAndPolicing.R2.lo[0].lo rcvdPkFromHl:count 0
attr interpolationmode none
attr source packetReceivedFromUpper
attr title "packets received from higher layer, count"
scalar NetworkWithShapingAndPolicing.R2.lo[0].lo rcvdPkFromHl:sum(packetBytes) 0
attr interpolationmode none
attr source packetReceivedFromUpper
attr title "packets received from higher layer, sum(packetBytes)"
scalar NetworkWithShapingAndPolicing.R2.lo[0].lo passedUpPk:count 0
attr interpolationmode none
attr source packetSentToUpper
attr title "packets passed to higher layer, count"
scalar NetworkWithShapingAndPolicing.R2.lo[0].lo passedUpPk:sum(packetBytes) 0
attr interpolationmode none
attr source packetSentToUpper
attr title "packets passed to higher layer, sum(packetBytes)"
scalar NetworkWithShapingAndPolicing.R2.ppp[0].ppp.queue packetPopped:count 357
attr interpolationmode none
attr title "packet popped, count"
scalar NetworkWithShapingAndPolicing.R2.ppp[0].ppp.queue packetPopped:sum(packetBytes) 47748
attr interpolationmode none
attr title "packet popped, sum(packetBytes)"
statistic NetworkWithShapingAndPolicing.R2.ppp[0].ppp.queue queueingTime:histogram
field count 357
field mean 0.0054651905136218
field stddev 0.019817923081659
field min 0
field max 0.08975
field sum 1.951073013363
field sqrsum 0.15048201252034
attr interpolationmode none
attr source queueingTime(packetPopped)
attr title "queueing times, histogram"
attr unit s
bin	-inf	0
bin	-0.5	0
bin	-0.48	0
bin	-0.46	0
bin	-0.44	0
bin	-0.42	0
bin	-0.4	0
bin	-0.38	0
bin	-0.36	0
bin	-0.34	0
bin	-0.32	0
bin	-0.3	0
bin	-0.28	0
bin	-0.26	0
bin	-0.24	0
bin	-0.22	0
bin	-0.2	0
bin	-0.18	0
bin	-0.16	0
bin	-0.14	0
bin	-0.12	0
bin	-0.1	0
bin	-0.08	0
bin	-0.06	0
bin	-0.04	0
bin	-0.02	0
bin	0	331
bin	0.02	5
bin	0.04	1
bin	0.06	0
bin	0.08	20
bin	0.1	0
bin	0.12	0
bin	0.14	0
bin	0.16	0
bin	0.18	0
bin	0.2	0
bin	0.22	0
bin	0.24	0
bin	0.26	0
bin	0.28	0
bin	0.3	0
bin	0.32	0
bin	0.34	0
bin	0.36	0
bin	0.38	0
bin	0.4	0
bin	0.42	0
bin	0.44	0
bin	0.46	0
bin	0.48	0
bin	0.5	0
scalar NetworkWithShapingAndPolicing.R2.ppp[0].ppp.queue queueLength:max 2
attr interpolationmode sample-hold
attr source "count(packetPushed) - count(packetPopped) - count(packetRemoved) - count(packetDropped)"
attr title "queue length, max"
scalar NetworkWithShapingAndPolicing.R2.ppp[0].ppp.queue queueLength:timeavg 0.0015609739353087
attr interpolationmode sample-hold
attr source "count(packetPushed) - count(packetPopped) - count(packetRemoved) - count(packetDropped)"
attr title "queue length, timeavg"
scalar NetworkWithShapingAndPolicing.R2.ppp[0].ppp.queue packetPushed:count 357
attr interpolationmode none
attr title "packet pushed, count"
scalar NetworkWithShapingAndPolicing.R2.ppp[0].ppp.queue packetPushed:sum(packetBytes) 47748
attr interpolationmode none
attr title "packet pushed, sum(packetBytes)"
scalar NetworkWithShapingAndPolicing.R2.ppp[0].ppp.queue packetDropQueueOverflow:count 0
attr interpolationmode none
attr source packetDropReasonIsQueueOverflow(packetDropped)
attr title "packet drops: queue overflow, count"
scalar NetworkWithShapingAndPolicing.R2.ppp[0].ppp.queue packetDropQueueOverflow:sum(packetBytes) 0
attr interpolationmode none
attr source packetDropReasonIsQueueOverflow(packetDropped)
attr title "packet drops: queue overflow, sum(packetBytes)"
scalar NetworkWithShapingAndPolicing.R2.ppp[0].ppp.queue packetRemoved:count 0
attr interpolationmode none
attr title "packets removed, count"
scalar NetworkWithShapingAndPolicing.R2.ppp[0].ppp.queue packetRemoved:sum(packetBytes) 0
attr interpolationmode none
attr title "packets removed, sum(packetBytes)"
scalar NetworkWithShapingAndPolicing.R2.ppp[0].ppp transmissionState:timeavg 0.0100494
attr interpolationmode sample-hold
attr source transmissionStateChanged
attr title "tx state, timeavg"
scalar NetworkWithShapingAndPolicing.R2.ppp[0].ppp rxPkOk:count 7982
attr interpolationmode none
attr source rxPkOk
attr title "packets received OK, count"
scalar NetworkWithShapingAndPolicing.R2.ppp[0].ppp rxPkOk:sum(packetBytes) 3370858
attr interpolationmode none
attr source rxPkOk
attr title "packets received OK, sum(packetBytes)"
scalar NetworkWithShapingAndPolicing.R2.ppp[0].ppp txPk:count 357
attr interpolationmode none
attr source packetSentToLower
attr title "packets transmitted, count"
scalar NetworkWithShapingAndPolicing.R2.ppp[0].ppp txPk:sum(packetBytes) 50247
attr interpolationmode none
attr source packetSentToLower
attr title "packets transmitted, sum(packetBytes)"
scalar NetworkWithShapingAndPolicing.R2.ppp[0].ppp rcvdPkFromHl:count 357
attr interpolationmode none
attr source packetReceivedFromUpper
attr title "packets received from higher layer, count"
scalar NetworkWithShapingAndPolicing.R2.ppp[0].ppp rcvdPkFromHl:sum(packetBytes) 47748
attr interpolationmode none
attr source packetReceivedFromUpper
attr title "packets received from higher layer, sum(packetBytes)"
scalar NetworkWithShapingAndPolicing.R2.ppp[0].ppp passedUpPk:count 7982
attr interpolationmode none
attr source packetSentToUpper
attr title "packets passed to higher layer, count"
scalar NetworkWithShapingAndPolicing.R2.ppp[0].ppp passedUpPk:sum(packetBytes) 3314984
attr interpolationmode none
attr source packetSentToUpper
attr title "packets passed to higher layer, sum(packetBytes)"
scalar NetworkWithShapingAndPolicing.R2.ppp[0].ppp packetDropIncorrectlyReceived:count 0
attr interpolationmode none
attr source packetDropReasonIsIncorrectlyReceived(packetDropped)
attr title "packet drop: incorrectly received, count"
scalar NetworkWithShapingAndPolicing.R2.ppp[0].ppp packetDropIncorrectlyReceived:sum(packetBytes) 0
attr interpolationmode none
attr source packetDropReasonIsIncorrectlyReceived(packetDropped)
attr title "packet drop: incorrectly received, sum(packetBytes)"
scalar NetworkWithShapingAndPolicing.R2.ppp[0].ppp packetDropInterfaceDown:count 0
attr interpolationmode none
attr source packetDropReasonIsInterfaceDown(packetDropped)
attr title "packet drop: interface down, count"
scalar NetworkWithShapingAndPolicing.R2.ppp[0].ppp packetDropInterfaceDown:sum(packetBytes) 0
attr interpolationmode none
attr source packetDropReasonIsInterfaceDown(packetDropped)
attr title "packet drop: interface down, sum(packetBytes)"
scalar NetworkWithShapingAndPolicing.R2.ppp[1].ppp.queue packetPopped:count 606
attr interpolationmode none
attr title "packet popped, count"
scalar NetworkWithShapingAndPolicing.R2.ppp[1].ppp.queue packetPopped:sum(packetBytes) 177312
attr interpolationmode none
attr title "packet popped, sum(packetBytes)"
statistic NetworkWithShapingAndPolicing.R2.ppp[1].ppp.queue queueingTime:histogram
field count 606
field mean 0.03467817918752
field stddev 0.047993883156302
field min 0
field max 0.178581632304
field sum 21.014976587637
field sqrsum 2.1223258800822
attr interpolationmode none
attr source queueingTime(packetPopped)
attr title "queueing times, histogram"
attr unit s
bin	-inf	0
bin	0	332
bin	0.005	0
bin	0.01	2
bin	0.015	30
bin	0.02	1
bin	0.025	0
bin	0.03	2
bin	0.035	54
bin	0.04	0
bin	0.045	8
bin	0.05	1
bin	0.055	0
bin	0.06	2
bin	0.065	1
bin	0.07	1
bin	0.075	0
bin	0.08	106
bin	0.085	2
bin	0.09	0
bin	0.095	11
bin	0.1	1
bin	0.105	1
bin	0.11	0
bin	0.115	15
bin	0.12	1
bin	0.125	0
bin	0.13	0
bin	0.135	0
bin	0.14	1
bin	0.145	0
bin	0.15	0
bin	0.155	1
bin	0.16	31
bin	0.165	0
bin	0.17	0
bin	0.175	2
bin	0.18	0
bin	0.185	0
bin	0.19	0
bin	0.195	0
bin	0.2	0
bin	0.205	0
bin	0.21	0
bin	0.215	0
bin	0.22	0
bin	0.225	0
scalar NetworkWithShapingAndPolicing.R2.ppp[1].ppp.queue queueLength:max 10
attr interpolationmode sample-hold
attr source "count(packetPushed) - count(packetPopped) - count(packetRemoved) - count(packetDropped)"
attr title "queue length, max"
scalar NetworkWithShapingAndPolicing.R2.ppp[1].ppp.queue queueLength:timeavg 0.01681318144104
attr interpolationmode sample-hold
attr source "count(packetPushed) - count(packetPopped) - count(packetRemoved) - count(packetDropped)"
attr title "queue length, timeavg"
scalar NetworkWithShapingAndPolicing.R2.ppp[1].ppp.queue packetPushed:count 606
attr interpolationmode none
attr title "packet pushed, count"
scalar NetworkWithShapingAndPolicing.R2.ppp[1].ppp.queue packetPushed:sum(packetBytes) 177312
attr interpolationmode none
attr title "packet pushed, sum(packetBytes)"
scalar NetworkWithShapingAndPolicing.R2.ppp[1].ppp.queue packetDropQueueOverflow:count 0
attr interpolationmode none
attr source packetDropReasonIsQueueOverflow(packetDropped)
attr title "packet drops: queue overflow, count"
scalar NetworkWithShapingAndPolicing.R2.ppp[1].ppp.queue packetDropQueueOverflow:sum(packetBytes) 0
attr interpolationmode none
attr source packetDropReasonIsQueueOverflow(packetDropped)
attr title "packet drops: queue overflow, sum(packetBytes)"
scalar NetworkWithShapingAndPolicing.R2.ppp[1].ppp.queue packetRemoved:count 0
attr interpolationmode none
attr title "packets removed, count"
scalar NetworkWithShapingAndPolicing.R2.ppp[1].ppp.queue packetRemoved:sum(packetBytes) 0
attr interpolationmode none
attr title "packets removed, sum(packetBytes)"
scalar NetworkWithShapingAndPolicing.R2.ppp[1].ppp transmissionState:timeavg 0.0363108
attr interpolationmode sample-hold
attr source transmissionStateChanged
attr title "tx state, timeavg"
scalar NetworkWithShapingAndPolicing.R2.ppp[1].ppp rxPkOk:count 242
attr interpolationmode none
attr source rxPkOk
attr title "packets received OK, count"
scalar NetworkWithShapingAndPolicing.R2.ppp[1].ppp rxPkOk:sum(packetBytes) 21126
attr interpolationmode none
attr source rxPkOk
attr title "packets received OK, sum(packetBytes)"
scalar NetworkWithShapingAndPolicing.R2.ppp[1].ppp txPk:count 606
attr interpolationmode none
attr source packetSentToLower
attr title "packets transmitted, count"
scalar NetworkWithShapingAndPolicing.R2.ppp[1].ppp txPk:sum(packetBytes) 181554
attr interpolationmode none
attr source packetSentToLower
attr title "packets transmitted, sum(packetBytes)"
scalar NetworkWithShapingAndPolicing.R2.ppp[1].ppp rcvdPkFromHl:count 606
attr interpolationmode none
attr source packetReceivedFromUpper
attr title "packets received from higher layer, count"
scalar NetworkWithShapingAndPolicing.R2.ppp[1].ppp rcvdPkFromHl:sum(packetBytes) 177312
attr interpolationmode none
attr source packetReceivedFromUpper
attr title "packets received from higher layer, sum(packetBytes)"
scalar NetworkWithShapingAndPolicing.R2.ppp[1].ppp passedUpPk:count 242
attr interpolationmode none
attr source packetSentToUpper
attr title "packets passed to higher layer, count"
scalar NetworkWithShapingAndPolicing.R2.ppp[1].ppp passedUpPk:sum(packetBytes) 19432
attr interpolationmode none
attr source packetSentToUpper
attr title "packets passed to higher layer, sum(packetBytes)"
scalar NetworkWithShapingAndPolicing.R2.ppp[1].ppp packetDropIncorrectlyReceived:count 0
attr interpolationmode none
attr source packetDropReasonIsIncorrectlyReceived(packetDropped)
attr title "packet drop: incorrectly received, count"
scalar NetworkWithShapingAndPolicing.R2.ppp[1].ppp packetDropIncorrectlyReceived:sum(packetBytes) 0
attr interpolationmode none
attr source packetDropReasonIsIncorrectlyReceived(packetDropped)
attr title "packet drop: incorrectly received, sum(packetBytes)"
scalar NetworkWithShapingAndPolicing.R2.ppp[1].ppp packetDropInterfaceDown:count 0
attr interpolationmode none
attr source packetDropReasonIsInterfaceDown(packetDropped)
attr title "packet drop: interface down, count"
scalar NetworkWithShapingAndPolicing.R2.ppp[1].ppp packetDropInterfaceDown:sum(packetBytes) 0
attr interpolationmode none
attr source packetDropReasonIsInterfaceDown(packetDropped)
attr title "packet drop: interface down, sum(packetBytes)"
scalar NetworkWithShapingAndPolicing.R2.ppp[2].ppp.queue packetPopped:count 4815
attr interpolationmode none
attr title "packet popped, count"
scalar NetworkWithShapingAndPolicing.R2.ppp[2].ppp.queue packetPopped:sum(packetBytes) 2036716
attr interpolationmode none
attr title "packet popped, sum(packetBytes)"
statistic NetworkWithShapingAndPolicing.R2.ppp[2].ppp.queue queueingTime:histogram
field count 4815
field mean 17.175910348897
field stddev 7.7929158704445
field min 0
field max 25.52475
field sum 82702.008329938
field sqrsum 1712834.2755438
attr interpolationmode none
attr source queueingTime(packetPopped)
attr title "queueing times, histogram"
attr unit s
bin	-inf	0
bin	0	89
bin	0.4	47
bin	0.8	42
bin	1.2	35
bin	1.6	43
bin	2	46
bin	2.4	45
bin	2.8	38
bin	3.2	36
bin	3.6	44
bin	4	38
bin	4.4	40
bin	4.8	43
bin	5.2	37
bin	5.6	40
bin	6	39
bin	6.4	42
bin	6.8	40
bin	7.2	43
bin	7.6	46
bin	8	39
bin	8.4	45
bin	8.8	47
bin	9.2	42
bin	9.6	49
bin	10	49
bin	10.4	41
bin	10.8	45
bin	11.2	46
bin	11.6	41
bin	12	46
bin	12.4	34
bin	12.8	44
bin	13.2	43
bin	13.6	37
bin	14	39
bin	14.4	42
bin	14.8	45
bin	15.2	42
bin	15.6	42
bin	16	32
bin	16.4	48
bin	16.8	61
bin	17.2	58
bin	17.6	48
bin	18	44
bin	18.4	58
bin	18.8	55
bin	19.2	92
bin	19.6	70
bin	20	70
bin	20.4	92
bin	20.8	79
bin	21.2	60
bin	21.6	86
bin	22	102
bin	22.4	103
bin	22.8	202
bin	23.2	335
bin	23.6	491
bin	24	453
bin	24.4	311
bin	24.8	112
bin	25.2	22
bin	25.6	0
scalar NetworkWithShapingAndPolicing.R2.ppp[2].ppp.queue queueLength:max 101
attr interpolationmode sample-hold
attr source "count(packetPushed) - count(packetPopped) - count(packetRemoved) - count(packetDropped)"
attr title "queue length, max"
scalar NetworkWithShapingAndPolicing.R2.ppp[2].ppp.queue queueLength:timeavg 66.166732898021
attr interpolationmode sample-hold
attr source "count(packetPushed) - count(packetPopped) - count(packetRemoved) - count(packetDropped)"
attr title "queue length, timeavg"
scalar NetworkWithShapingAndPolicing.R2.ppp[2].ppp.queue packetPushed:count 7775
attr interpolationmode none
attr title "packet pushed, count"
scalar NetworkWithShapingAndPolicing.R2.ppp[2].ppp.queue packetPushed:sum(packetBytes) 3159944
attr interpolationmode none
attr title "packet pushed, sum(packetBytes)"
scalar NetworkWithShapingAndPolicing.R2.ppp[2].ppp.queue packetDropQueueOverflow:count 2960
attr interpolationmode none
attr source packetDropReasonIsQueueOverflow(packetDropped)
attr title "packet drops: queue overflow, count"
scalar NetworkWithShapingAndPolicing.R2.ppp[2].ppp.queue packetDropQueueOverflow:sum(packetBytes) 1123228
attr interpolationmode none
attr source packetDropReasonIsQueueOverflow(packetDropped)
attr title "packet drops: queue overflow, sum(packetBytes)"
scalar NetworkWithShapingAndPolicing.R2.ppp[2].ppp.queue packetRemoved:count 0
attr interpolationmode none
attr title "packets removed, count"
scalar NetworkWithShapingAndPolicing.R2.ppp[2].ppp.queue packetRemoved:sum(packetBytes) 0
attr interpolationmode none
attr title "packets removed, sum(packetBytes)"
scalar NetworkWithShapingAndPolicing.R2.ppp[2].ppp transmissionState:timeavg 0.82816840000007
attr interpolationmode sample-hold
attr source transmissionStateChanged
attr title "tx state, timeavg"
scalar NetworkWithShapingAndPolicing.R2.ppp[2].ppp rxPkOk:count 363
attr interpolationmode none
attr source rxPkOk
attr title "packets received OK, count"
scalar NetworkWithShapingAndPolicing.R2.ppp[2].ppp rxPkOk:sum(packetBytes) 30333
attr interpolationmode none
attr source rxPkOk
attr title "packets received OK, sum(packetBytes)"
scalar NetworkWithShapingAndPolicing.R2.ppp[2].ppp txPk:count 4815
attr interpolationmode none
attr source packetSentToLower
attr title "packets transmitted, count"
scalar NetworkWithShapingAndPolicing.R2.ppp[2].ppp txPk:sum(packetBytes) 2070421
attr interpolationmode none
attr source packetSentToLower
attr title "packets transmitted, sum(packetBytes)"
scalar NetworkWithShapingAndPolicing.R2.ppp[2].ppp rcvdPkFromHl:count 7775
attr interpolationmode none
attr source packetReceivedFromUpper
attr title "packets received from higher layer, count"
scalar NetworkWithShapingAndPolicing.R2.ppp[2].ppp rcvdPkFromHl:sum(packetBytes) 3159944
attr interpolationmode none
attr source packetReceivedFromUpper
attr title "packets received from higher layer, sum(packetBytes)"
scalar NetworkWithShapingAndPolicing.R2.ppp[2].ppp passedUpPk:count 363
attr interpolationmode none
attr source packetSentToUpper
attr title "packets passed to higher layer, count"
scalar NetworkWithShapingAndPolicing.R2.ppp[2].ppp passedUpPk:sum(packetBytes) 27792
attr interpolationmode none
attr source packetSentToUpper
attr title "packets passed to higher layer, sum(packetBytes)"
[...]
attr interpolationmode none
attr title "packets removed, sum(packetBytes)"
scalar NetworkWithShapingAndPolicing.H2.eth[0].mac.queue.dataQueue packetPopped:count 31
attr interpolationmode none
attr title "packet popped, count"
scalar NetworkWithShapingAndPolicing.H2.eth[0].mac.queue.dataQueue packetPopped:sum(packetBytes) 2172
attr interpolationmode none
attr title "packet popped, sum(packetBytes)"
statistic NetworkWithShapingAndPolicing.H2.eth[0].mac.queue.dataQueue queueingTime:histogram
field count 31
field mean 4.3354838709677e-07
field stddev 1.6781925761308e-06
field min 0
field max 6.72e-06
field sum 1.344e-05
field sqrsum 9.03168e-11
attr interpolationmode none
attr source queueingTime(packetPopped)
attr title "queueing times, histogram"
attr unit s
bin	-inf	0
bin	0	29
bin	1e-07	0
bin	2e-07	0
bin	3e-07	0
bin	4e-07	0
bin	5e-07	0
bin	6e-07	0
bin	7e-07	0
bin	8e-07	0
bin	9e-07	0
bin	1e-06	0
bin	1.1e-06	0
bin	1.2e-06	0
bin	1.3e-06	0
bin	1.4e-06	0
bin	1.5e-06	0
bin	1.6e-06	0
bin	1.7e-06	0
bin	1.8e-06	0
bin	1.9e-06	0
bin	2e-06	0
bin	2.1e-06	0
bin	2.2e-06	0
bin	2.3e-06	0
bin	2.4e-06	0
bin	2.5e-06	0
bin	2.6e-06	0
bin	2.7e-06	0
bin	2.8e-06	0
bin	2.9e-06	0
bin	3e-06	0
bin	3.1e-06	0
bin	3.2e-06	0
bin	3.3e-06	0
bin	3.4e-06	0
bin	3.5e-06	0
bin	3.6e-06	0
bin	3.7e-06	0
bin	3.8e-06	0
bin	3.9e-06	0
bin	4e-06	0
bin	4.1e-06	0
bin	4.2e-06	0
bin	4.3e-06	0
bin	4.4e-06	0
bin	4.5e-06	0
bin	4.6e-06	0
bin	4.7e-06	0
bin	4.8e-06	0
bin	4.9e-06	0
bin	5e-06	0
bin	5.1e-06	0
bin	5.2e-06	0
bin	5.3e-06	0
bin	5.4e-06	0
bin	5.5e-06	0
bin	5.6e-06	0
bin	5.7e-06	0
bin	5.8e-06	0
bin	5.9e-06	0
bin	6e-06	0
bin	6.1e-06	0
bin	6.2e-06	0
bin	6.3e-06	0
bin	6.4e-06	0
bin	6.5e-06	0
bin	6.6e-06	0
bin	6.7e-06	2
bin	6.8e-06	0
bin	6.9e-06	0
bin	7e-06	0
bin	7.1e-06	0
bin	7.2e-06	0
bin	7.3e-06	0
bin	7.4e-06	0
bin	7.5e-06	0
bin	7.6e-06	0
bin	7.7e-06	0
bin	7.8e-06	0
bin	7.9e-06	0
bin	8e-06	0
bin	8.1e-06	0
bin	8.2e-06	0
bin	8.3e-06	0
bin	8.4e-06	0
scalar NetworkWithShapingAndPolicing.H2.eth[0].mac.queue.dataQueue queueLength:max 1
attr interpolationmode sample-hold
attr source "count(packetPushed) - count(packetPopped) - count(packetRemoved) - count(packetDropped)"
attr title "queue length, max"
scalar NetworkWithShapingAndPolicing.H2.eth[0].mac.queue.dataQueue queueLength:timeavg 1.076170079718e-08
attr interpolationmode sample-hold
attr source "count(packetPushed) - count(packetPopped) - count(packetRemoved) - count(packetDropped)"
attr title "queue length, timeavg"
scalar NetworkWithShapingAndPolicing.H2.eth[0].mac.queue.dataQueue packetPushed:count 31
attr interpolationmode none
attr title "packet pushed, count"
scalar NetworkWithShapingAndPolicing.H2.eth[0].mac.queue.dataQueue packetPushed:sum(packetBytes) 2172
attr interpolationmode none
attr title "packet pushed, sum(packetBytes)"
scalar NetworkWithShapingAndPolicing.H2.eth[0].mac.queue.dataQueue packetDropQueueOverflow:count 0
attr interpolationmode none
attr source packetDropReasonIsQueueOverflow(packetDropped)
attr title "packet drops: queue overflow, count"
scalar NetworkWithShapingAndPolicing.H2.eth[0].mac.queue.dataQueue packetDropQueueOverflow:sum(packetBytes) 0
attr interpolationmode none
attr source packetDropReasonIsQueueOverflow(packetDropped)
attr title "packet drops: queue overflow, sum(packetBytes)"
scalar NetworkWithShapingAndPolicing.H2.eth[0].mac.queue.dataQueue packetRemoved:count 0
attr interpolationmode none
attr title "packets removed, count"
scalar NetworkWithShapingAndPolicing.H2.eth[0].mac.queue.dataQueue packetRemoved:sum(packetBytes) 0
attr interpolationmode none
attr title "packets removed, sum(packetBytes)"
scalar NetworkWithShapingAndPolicing.H2.eth[0].mac.queue.scheduler packetPopped:count 31
attr interpolationmode none
attr title "packets popped, count"
scalar NetworkWithShapingAndPolicing.H2.eth[0].mac.queue.scheduler packetPopped:sum(packetBytes) 2172
attr interpolationmode none
attr title "packets popped, sum(packetBytes)"
scalar NetworkWithShapingAndPolicing.H2.eth[0].mac.queue packetPopped:count 31
attr interpolationmode none
attr source localSignal(packetPopped)
attr title "packets popped, count"
scalar NetworkWithShapingAndPolicing.H2.eth[0].mac.queue packetPopped:sum(packetBytes) 2172
attr interpolationmode none
attr source localSignal(packetPopped)
attr title "packets popped, sum(packetBytes)"
statistic NetworkWithShapingAndPolicing.H2.eth[0].mac.queue queueingTime:histogram
field count 93
field mean 4.3354838709677e-07
field stddev 1.6598511229477e-06
field min 0
field max 6.72e-06
field sum 4.032e-05
field sqrsum 2.709504e-10
attr interpolationmode none
attr source queueingTime(packetPopped)
attr title "queueing times, histogram"
attr unit s
bin	-inf	0
bin	0	87
bin	1e-07	0
bin	2e-07	0
bin	3e-07	0
bin	4e-07	0
bin	5e-07	0
bin	6e-07	0
bin	7e-07	0
bin	8e-07	0
bin	9e-07	0
bin	1e-06	0
bin	1.1e-06	0
bin	1.2e-06	0
bin	1.3e-06	0
bin	1.4e-06	0
bin	1.5e-06	0
bin	1.6e-06	0
bin	1.7e-06	0
bin	1.8e-06	0
bin	1.9e-06	0
bin	2e-06	0
bin	2.1e-06	0
bin	2.2e-06	0
bin	2.3e-06	0
bin	2.4e-06	0
bin	2.5e-06	0
bin	2.6e-06	0
bin	2.7e-06	0
bin	2.8e-06	0
bin	2.9e-06	0
bin	3e-06	0
bin	3.1e-06	0
bin	3.2e-06	0
bin	3.3e-06	0
bin	3.4e-06	0
bin	3.5e-06	0
bin	3.6e-06	0
bin	3.7e-06	0
bin	3.8e-06	0
bin	3.9e-06	0
bin	4e-06	0
bin	4.1e-06	0
bin	4.2e-06	0
bin	4.3e-06	0
bin	4.4e-06	0
bin	4.5e-06	0
bin	4.6e-06	0
bin	4.7e-06	0
bin	4.8e-06	0
bin	4.9e-06	0
bin	5e-06	0
bin	5.1e-06	0
bin	5.2e-06	0
bin	5.3e-06	0
bin	5.4e-06	0
bin	5.5e-06	0
bin	5.6e-06	0
bin	5.7e-06	0
bin	5.8e-06	0
bin	5.9e-06	0
bin	6e-06	0
bin	6.1e-06	0
bin	6.2e-06	0
bin	6.3e-06	0
bin	6.4e-06	0
bin	6.5e-06	0
bin	6.6e-06	0
bin	6.7e-06	6
bin	6.8e-06	0
bin	6.9e-06	0
bin	7e-06	0
bin	7.1e-06	0
bin	7.2e-06	0
bin	7.3e-06	0
bin	7.4e-06	0
bin	7.5e-06	0
bin	7.6e-06	0
bin	7.7e-06	0
bin	7.8e-06	0
bin	7.9e-06	0
bin	8e-06	0
bin	8.1e-06	0
bin	8.2e-06	0
bin	8.3e-06	0
bin	8.4e-06	0
scalar NetworkWithShapingAndPolicing.H2.eth[0].mac.queue queueLength:max 1
attr interpolationmode sample-hold
attr source "count(localSignal(packetPushed)) - count(localSignal(packetPopped)) - count(localSignal(packetRemoved)) - count(packetDropped)"
attr title "queue length, max"
scalar NetworkWithShapingAndPolicing.H2.eth[0].mac.queue queueLength:timeavg 1.076170079718e-08
attr interpolationmode sample-hold
attr source "count(localSignal(packetPushed)) - count(localSignal(packetPopped)) - count(localSignal(packetRemoved)) - count(packetDropped)"
attr title "queue length, timeavg"
scalar NetworkWithShapingAndPolicing.H2.eth[0].mac.queue packetPushed:count 31
attr interpolationmode none
attr source localSignal(packetPushed)
attr title "packets pushed, count"
scalar NetworkWithShapingAndPolicing.H2.eth[0].mac.queue packetPushed:sum(packetBytes) 2172
attr interpolationmode none
attr source localSignal(packetPushed)
attr title "packets pushed, sum(packetBytes)"
scalar NetworkWithShapingAndPolicing.H2.eth[0].mac.queue packetDropQueueOverflow:count 0
attr interpolationmode none
attr source packetDropReasonIsQueueOverflow(packetDropped)
attr title "packets dropped: queue overflow, count"
scalar NetworkWithShapingAndPolicing.H2.eth[0].mac.queue packetDropQueueOverflow:sum(packetBytes) 0
attr interpolationmode none
attr source packetDropReasonIsQueueOverflow(packetDropped)
attr title "packets dropped: queue overflow, sum(packetBytes)"
scalar NetworkWithShapingAndPolicing.H2.eth[0].mac.queue packetRemoved:count 0
attr interpolationmode none
attr source localSignal(packetRemoved)
attr title "packets removed, count"
scalar NetworkWithShapingAndPolicing.H2.eth[0].mac.queue packetRemoved:sum(packetBytes) 0
attr interpolationmode none
attr source localSignal(packetRemoved)
attr title "packets removed, sum(packetBytes)"
scalar NetworkWithShapingAndPolicing.H2.eth[0].mac "simulated time" 1250
scalar NetworkWithShapingAndPolicing.H2.eth[0].mac full-duplex 1
scalar NetworkWithShapingAndPolicing.H2.eth[0].mac "frames/sec sent" 0.0248
scalar NetworkWithShapingAndPolicing.H2.eth[0].mac "frames/sec rcvd" 4.2112
scalar NetworkWithShapingAndPolicing.H2.eth[0].mac "bits/sec sent" 13.9008
scalar NetworkWithShapingAndPolicing.H2.eth[0].mac "bits/sec rcvd" 16098.6752
scalar NetworkWithShapingAndPolicing.H2.eth[0].mac "rx channel idle (%)" 100
scalar NetworkWithShapingAndPolicing.H2.eth[0].mac "rx channel utilization (%)" 0
scalar NetworkWithShapingAndPolicing.H2.eth[0].mac rxPausePkUnits:count 0
attr interpolationmode none
attr title "pause units received, count"
scalar NetworkWithShapingAndPolicing.H2.eth[0].mac rxPausePkUnits:sum 0
attr interpolationmode none
attr title "pause units received, sum"
scalar NetworkWithShapingAndPolicing.H2.eth[0].mac txPausePkUnits:count 0
attr interpolationmode none
attr title "pause units sent, count"
scalar NetworkWithShapingAndPolicing.H2.eth[0].mac txPausePkUnits:sum 0
attr interpolationmode none
attr title "pause units sent, sum"
scalar NetworkWithShapingAndPolicing.H2.eth[0].mac rxPkOk:count 5264
attr interpolationmode none
attr source rxPkOk
attr title "packets received OK, count"
scalar NetworkWithShapingAndPolicing.H2.eth[0].mac rxPkOk:sum(packetBytes) 2515418
attr interpolationmode none
attr source rxPkOk
attr title "packets received OK, sum(packetBytes)"
scalar NetworkWithShapingAndPolicing.H2.eth[0].mac txPk:count 31
attr interpolationmode none
attr source packetSentToLower
attr title "packets transmitted, count"
scalar NetworkWithShapingAndPolicing.H2.eth[0].mac txPk:sum(packetBytes) 2172
attr interpolationmode none
attr source packetSentToLower
attr title "packets transmitted, sum(packetBytes)"
scalar NetworkWithShapingAndPolicing.H2.eth[0].mac packetReceivedFromUpper:count 31
attr interpolationmode none
attr source packetReceivedFromUpper
attr title "packet bytes from higher layer, count"
scalar NetworkWithShapingAndPolicing.H2.eth[0].mac packetReceivedFromUpper:sum(packetBytes) 1890
attr interpolationmode none
attr source packetReceivedFromUpper
attr title "packet bytes from higher layer, sum(packetBytes)"
scalar NetworkWithShapingAndPolicing.H2.eth[0].mac passedUpPk:count 5264
attr interpolationmode none
attr source packetSentToUpper
attr title "packets passed to higher layer, count"
scalar NetworkWithShapingAndPolicing.H2.eth[0].mac passedUpPk:sum(packetBytes) 2515418
attr interpolationmode none
attr source packetSentToUpper
attr title "packets passed to higher layer, sum(packetBytes)"
scalar NetworkWithShapingAndPolicing.H2.eth[0].mac packetDropIncorrectlyReceived:count 0
attr interpolationmode none
attr source packetDropReasonIsIncorrectlyReceived(packetDropped)
attr title "packet drop: incorrectly received, count"
scalar NetworkWithShapingAndPolicing.H2.eth[0].mac packetDropIncorrectlyReceived:sum(packetBytes) 0
attr interpolationmode none
attr source packetDropReasonIsIncorrectlyReceived(packetDropped)
attr title "packet drop: incorrectly received, sum(packetBytes)"
scalar NetworkWithShapingAndPolicing.H2.eth[0].mac packetDropInterfaceDown:count 0
attr interpolationmode none
attr source packetDropReasonIsInterfaceDown(packetDropped)
attr title "packet drop: interface down, count"
scalar NetworkWithShapingAndPolicing.H2.eth[0].mac packetDropInterfaceDown:sum(packetBytes) 0
attr interpolationmode none
attr source packetDropReasonIsInterfaceDown(packetDropped)
attr title "packet drop: interface down, sum(packetBytes)"
scalar NetworkWithShapingAndPolicing.H2.eth[0].mac packetDropNotAddressedToUs:count 0
attr interpolationmode none
attr source packetDropReasonIsNotAddressedToUs(packetDropped)
attr title "packet drop: not addressed to us, count"
scalar NetworkWithShapingAndPolicing.H2.eth[0].mac packetDropNotAddressedToUs:sum(packetBytes) 0
attr interpolationmode none
attr source packetDropReasonIsNotAddressedToUs(packetDropped)
attr title "packet drop: not addressed to us, sum(packetBytes)"
scalar NetworkWithShapingAndPolicing.H2.eth[0].encap pauseSent:count 0
attr title "pause sent, count"
scalar NetworkWithShapingAndPolicing.H2.eth[0].encap pauseSent:sum 0
attr title "pause sent, sum"
scalar NetworkWithShapingAndPolicing.H2.eth[0].encap decapPk:count 5264
attr interpolationmode none
attr source decapPk
attr title "packets decapsulated, count"
scalar NetworkWithShapingAndPolicing.H2.eth[0].encap decapPk:sum(packetBytes) 2420666
attr interpolationmode none
attr source decapPk
attr title "packets decapsulated, sum(packetBytes)"
scalar NetworkWithShapingAndPolicing.H2.eth[0].encap encapPk:count 31
attr interpolationmode none
attr source encapPk
attr title "packets encapsulated, count"
scalar NetworkWithShapingAndPolicing.H2.eth[0].encap encapPk:sum(packetBytes) 1332
attr interpolationmode none
attr source encapPk
attr title "packets encapsulated, sum(packetBytes)"
scalar NetworkWithShapingAndPolicing.H2.ipv4.ip packetDropAddressResolutionFailed:count 0
attr interpolationmode none
attr source packetDropReasonIsAddressResolutionFailed(packetDropped)
attr title "packet drop: address resolution failed, count"
scalar NetworkWithShapingAndPolicing.H2.ipv4.ip packetDropAddressResolutionFailed:sum(packetBytes) 0
attr interpolationmode none
attr source packetDropReasonIsAddressResolutionFailed(packetDropped)
attr title "packet drop: address resolution failed, sum(packetBytes)"
scalar NetworkWithShapingAndPolicing.H2.ipv4.ip packetDropHopLimitReached:count 0
attr interpolationmode none
attr source packetDropReasonIsHopLimitReached(packetDropped)
attr title "packet drop: hop limit reached, count"
scalar NetworkWithShapingAndPolicing.H2.ipv4.ip packetDropHopLimitReached:sum(packetBytes) 0
attr interpolationmode none
attr source packetDropReasonIsHopLimitReached(packetDropped)
attr title "packet drop: hop limit reached, sum(packetBytes)"
scalar NetworkWithShapingAndPolicing.H2.ipv4.ip packetDropForwardingDisabled:count 0
attr interpolationmode none
attr source packetDropReasonIsForwardingDisabled(packetDropped)
attr title "packet drop: forwarding disabled, count"
scalar NetworkWithShapingAndPolicing.H2.ipv4.ip packetDropForwardingDisabled:sum(packetBytes) 0
attr interpolationmode none
attr source packetDropReasonIsForwardingDisabled(packetDropped)
attr title "packet drop: forwarding disabled, sum(packetBytes)"
scalar NetworkWithShapingAndPolicing.H2.ipv4.ip packetDropNoInterfaceFound:count 0
attr interpolationmode none
attr source packetDropReasonIsNoInterfaceFound(packetDropped)
attr title "packet drop: no interface found, count"
scalar NetworkWithShapingAndPolicing.H2.ipv4.ip packetDropNoInterfaceFound:sum(packetBytes) 0
attr interpolationmode none
attr source packetDropReasonIsNoInterfaceFound(packetDropped)
attr title "packet drop: no interface found, sum(packetBytes)"
scalar NetworkWithShapingAndPolicing.H2.ipv4.ip packetDropNoRouteFound:count 0
attr interpolationmode none
attr source packetDropReasonIsNoRouteFound(packetDropped)
attr title "packet drop: no route found, count"
scalar NetworkWithShapingAndPolicing.H2.ipv4.ip packetDropNoRouteFound:sum(packetBytes) 0
attr interpolationmode none
attr source packetDropReasonIsNoRouteFound(packetDropped)
attr title "packet drop: no route found, sum(packetBytes)"
scalar NetworkWithShapingAndPolicing.H2.ipv4.ip packetDropUndefined:count 0
attr interpolationmode none
attr source packetDropReasonIsUndefined(packetDropped)
attr title "packet drop: undefined, count"
scalar NetworkWithShapingAndPolicing.H2.ipv4.ip packetDropUndefined:sum(packetBytes) 0
attr interpolationmode none
attr source packetDropReasonIsUndefined(packetDropped)
attr title "packet drop: undefined, sum(packetBytes)"
scalar NetworkWithShapingAndPolicing.H2.ipv4.arp arpResolutionFailed:count 0
attr title "ARP failed resolutions, count"
scalar NetworkWithShapingAndPolicing.H2.ipv4.arp arpResolutionCompleted:count 11
attr title "ARP completed resolutions, count"
scalar NetworkWithShapingAndPolicing.H2.ipv4.arp arpResolutionInitiated:count 0
attr title "ARP initiated resolutions, count"
scalar NetworkWithShapingAndPolicing.H2.ipv4.arp arpReplySent:count 11
attr source arpReplySent
attr title "ARP replies sent, count"
scalar NetworkWithShapingAndPolicing.H2.ipv4.arp arpReplySent:sum(packetBytes) 308
attr source arpReplySent
attr title "ARP replies sent, sum(packetBytes)"
scalar NetworkWithShapingAndPolicing.H2.ipv4.arp arpRequestSent:count 0
attr source arpRequestSent
attr title "ARP request sent, count"
scalar NetworkWithShapingAndPolicing.H2.ipv4.arp arpRequestSent:sum(packetBytes) 0
attr source arpRequestSent
attr title "ARP request sent, sum(packetBytes)"
scalar NetworkWithShapingAndPolicing.H2.udp packetReceived:count 5122
attr interpolationmode none
attr source packetReceived
attr title "packets received, count"
scalar NetworkWithShapingAndPolicing.H2.udp packetReceived:sum(packetBytes) 2309400
attr interpolationmode none
attr source packetReceived
attr title "packets received, sum(packetBytes)"
scalar NetworkWithShapingAndPolicing.H2.udp packetSent:count 0
attr interpolationmode none
attr source packetSent
attr title "packets sent, count"
scalar NetworkWithShapingAndPolicing.H2.udp packetSent:sum(packetBytes) 0
attr interpolationmode none
attr source packetSent
attr title "packets sent, sum(packetBytes)"
scalar NetworkWithShapingAndPolicing.H2.udp passedUpPk:count 5122
attr interpolationmode none
attr source packetSentToUpper
attr title "packets passed up, count"
scalar NetworkWithShapingAndPolicing.H2.udp droppedPkWrongPort:count 0
attr interpolationmode none
attr source packetDropReasonIsNoPortFound(packetDropped)
attr title "packets dropped (wrong port), count"
scalar NetworkWithShapingAndPolicing.H2.udp droppedPkBadChecksum:count 0
attr interpolationmode none
attr source packetDropReasonIsIncorrectlyReceived(packetDropped)
attr title "packets dropped (checksum error), count"
scalar NetworkWithShapingAndPolicing.H2.app[0] "Total sent" 0
scalar NetworkWithShapingAndPolicing.H2.app[0] "Total received" 725
scalar NetworkWithShapingAndPolicing.H2.app[0] "Total deleted" 0
scalar NetworkWithShapingAndPolicing.H2.app[0] packetReceived:count 725
attr interpolationmode none
attr source packetReceived
attr title "packets received, count"
scalar NetworkWithShapingAndPolicing.H2.app[0] packetReceived:sum(packetBytes) 124700
attr interpolationmode none
attr source packetReceived
attr title "packets received, sum(packetBytes)"
scalar NetworkWithShapingAndPolicing.H2.app[0] packetSent:count 0
attr interpolationmode none
attr source packetSent
attr title "packets sent, count"
scalar NetworkWithShapingAndPolicing.H2.app[0] packetSent:sum(packetBytes) 0
attr interpolationmode none
attr source packetSent
attr title "packets sent, sum(packetBytes)"
scalar NetworkWithShapingAndPolicing.H2.app[0] outOfOrderPk:count 167
attr interpolationmode none
attr source outOfOrderPk
attr title "packets received out of order, count"
scalar NetworkWithShapingAndPolicing.H2.app[0] outOfOrderPk:sum(packetBytes) 28724
attr interpolationmode none
attr source outOfOrderPk
attr title "packets received out of order, sum(packetBytes)"
scalar NetworkWithShapingAndPolicing.H2.app[1] packetReceived:count 4230
attr interpolationmode none
attr source packetReceived
attr title "packets received, count"
scalar NetworkWithShapingAndPolicing.H2.app[1] packetReceived:sum(packetBytes) 2115000
attr interpolationmode none
attr source packetReceived
attr title "packets received, sum(packetBytes)"
scalar NetworkWithShapingAndPolicing.H2.app[2] packetReceived:count 1
attr interpolationmode none
attr source packetReceived
attr title "packets received, count"
scalar NetworkWithShapingAndPolicing.H2.app[2] packetReceived:sum(packetBytes) 50
attr interpolationmode none
attr source packetReceived
attr title "packets received, sum(packetBytes)"
scalar NetworkWithShapingAndPolicing.H2.app[2] packetSent:count 1
attr interpolationmode none
attr source packetSent
attr title "packets sent, count"
scalar NetworkWithShapingAndPolicing.H2.app[2] packetSent:sum(packetBytes) 100
attr interpolationmode none
attr source packetSent
attr title "packets sent, sum(packetBytes)"

