file 72186316 1617512316                                        
version 2
run Exp2DropTailWithPolicingAndShaping-0-20210404-00:58:16-71548
attr configname Exp2DropTailWithPolicingAndShaping
attr datetime 20210404-00:58:16
attr experiment Exp2DropTailWithPolicingAndShaping
attr inifile omnetpp.ini
attr iterationvars ""
attr iterationvarsf ""
attr measurement ""
attr network NetworkWithShapingAndPolicing
attr processid 71548
attr repetition 0
attr replication #0
attr resultdir results
attr runnumber 0
attr seedset 0
param **.ppp[*].ppp.queue.typename "\"DropTailQueue\""
param **.eth[*].mac.queue.typename "\"EtherQosQueue\""
param **.eth[*].mac.queue.dataQueue.typename "\"DropTailQueue\""
param **.queue.packetCapacity 100
param **.H?.numApps 3
param **.H1.app[0].typename "\"UdpBasicBurst\""
param **.H1.app[0].destAddresses "\"H2\""
param **.H1.app[0].chooseDestAddrMode "\"once\""
param **.H1.app[0].destPort 1000
param **.H1.app[0].startTime uniform(1s,2s)
param **.H1.app[0].stopTime 1200s
param **.H1.app[0].messageLength 172B
param **.H1.app[0].burstDuration exponential(0.352s)
param **.H1.app[0].sleepDuration exponential(0.650s)
param **.H1.app[0].sendInterval 20ms
param **.H2.app[0].typename "\"UdpBasicBurst\""
param **.H2.app[0].localPort 1000
param **.H2.app[0].delayLimit 0ms
param **.H2.app[0].destAddresses "\"\""
param **.H2.app[0].chooseDestAddrMode "\"once\""
param **.H2.app[0].destPort 0
param **.H2.app[0].messageLength 0B
param **.H2.app[0].burstDuration 0s
param **.H2.app[0].sleepDuration 0s
param **.H2.app[0].sendInterval 0ms
param **.H1.app[1].typename "\"UdpBasicApp\""
param **.H1.app[1].destPort 2000
param **.H1.app[1].startTime uniform(1s,2s)
param **.H1.app[1].stopTime 1200s
param **.H1.app[1].sendInterval 40ms
param **.H1.app[1].messageLength 500B
param **.H1.app[1].destAddresses "\"H2\""
param **.H2.app[1].typename "\"UdpSink\""
param **.H2.app[1].localPort 2000
param **.H1.app[2].typename "\"TcpBasicClientApp\""
param **.H1.app[2].connectAddress "\"H2\""
param **.H1.app[2].connectPort 3000
param **.H1.app[2].numRequestsPerSession 1
param **.H1.app[2].requestLength 50B
param **.H1.app[2].replyLength 100B
param **.H1.app[2].thinkTime 40ms
param **.H1.app[2].idleInterval 10s
param **.H1.app[2].stopTime 1200s
param **.H2.app[2].typename "\"TcpGenericServerApp\""
param **.H2.app[2].localPort 3000
param **.edgeDatarate 32kbps
param **.coreDatarate 16kbps
param **.R1.eth[?].ingressTC.typename "\"TC1\""
param **.R15.eth[?].ingressTC.typename "\"TC1\""
param **.ingressTC.numClasses 3
param **.ingressTC.classifier.filters "xmldoc(\"filters.xml\", \"//experiment[@id='default']\")"
param **.ingressTC.marker.dscps "\"AF11 AF21 AF31 AF41 BE\""
param **.R8.ppp[2].egressTC.typename "\"TrafficConditioner\""
param **.R8.ppp[2].egressTC.efMeter.cir "\"70%\""
param **.R8.ppp[2].egressTC.efMeter.cbs 50KiB
param **.R8.ppp[2].egressTC.defaultMeter.cir "\"30%\""
param **.R8.ppp[2].egressTC.defaultMeter.cbs 2KiB
param **.R8.ppp[2].egressTC.defaultMeter.ebs 4KiB
param **.R9.ppp[0].ingressTC.typename "\"TrafficConditioner\""
param **.R9.ppp[0].ingressTC.efMeter.cir "\"50%\""
param **.R9.ppp[0].ingressTC.efMeter.cbs 40KiB
param **.R9.ppp[0].ingressTC.defaultMeter.cir "\"25%\""
param **.R9.ppp[0].ingressTC.defaultMeter.cbs 2KiB
param **.R9.ppp[0].ingressTC.defaultMeter.ebs 4KiB
param **.queue.typename "\"EtherQosQueue\""
param **.queue.dataQueue.typename "\"DropTailQueue\""
param **.queue.packetCapacity 100
param **.queue.dataQueue.packetCapacity 100
param **.R*.hasOspf true
param **.R*.ospf.ospfConfig "xmldoc(\"OSPFConfig.xml\")"

vector 0 NetworkWithShapingAndPolicing.R1.pppg$o[0].channel busy:vector ETV
attr interpolationmode sample-hold
attr source channelBusy
vector 1 NetworkWithShapingAndPolicing.R1.pppg$o[1].channel busy:vector ETV
attr interpolationmode sample-hold
attr source channelBusy
vector 2 NetworkWithShapingAndPolicing.R1.ethg$o[0].channel busy:vector ETV
attr interpolationmode sample-hold
attr source channelBusy
vector 3 NetworkWithShapingAndPolicing.R2.pppg$o[0].channel busy:vector ETV
attr interpolationmode sample-hold
attr source channelBusy
vector 4 NetworkWithShapingAndPolicing.R2.pppg$o[1].channel busy:vector ETV
attr interpolationmode sample-hold
attr source channelBusy
vector 5 NetworkWithShapingAndPolicing.R2.pppg$o[2].channel busy:vector ETV
attr interpolationmode sample-hold
attr source channelBusy
vector 6 NetworkWithShapingAndPolicing.R3.pppg$o[0].channel busy:vector ETV
attr interpolationmode sample-hold
attr source channelBusy
vector 7 NetworkWithShapingAndPolicing.R3.pppg$o[1].channel busy:vector ETV
attr interpolationmode sample-hold
attr source channelBusy
vector 8 NetworkWithShapingAndPolicing.R4.pppg$o[0].channel busy:vector ETV
attr interpolationmode sample-hold
attr source channelBusy
vector 9 NetworkWithShapingAndPolicing.R4.pppg$o[1].channel busy:vector ETV
attr interpolationmode sample-hold
attr source channelBusy
vector 10 NetworkWithShapingAndPolicing.R5.pppg$o[0].channel busy:vector ETV
attr interpolationmode sample-hold
attr source channelBusy
vector 11 NetworkWithShapingAndPolicing.R5.pppg$o[1].channel busy:vector ETV
attr interpolationmode sample-hold
attr source channelBusy
vector 12 NetworkWithShapingAndPolicing.R6.pppg$o[0].channel busy:vector ETV
attr interpolationmode sample-hold
attr source channelBusy
vector 13 NetworkWithShapingAndPolicing.R6.pppg$o[1].channel busy:vector ETV
attr interpolationmode sample-hold
attr source channelBusy
vector 14 NetworkWithShapingAndPolicing.R7.pppg$o[0].channel busy:vector ETV
attr interpolationmode sample-hold
attr source channelBusy
vector 15 NetworkWithShapingAndPolicing.R7.pppg$o[1].channel busy:vector ETV
attr interpolationmode sample-hold
attr source channelBusy
vector 16 NetworkWithShapingAndPolicing.R7.pppg$o[2].channel busy:vector ETV
attr interpolationmode sample-hold
attr source channelBusy
vector 17 NetworkWithShapingAndPolicing.R11.pppg$o[0].channel busy:vector ETV
attr interpolationmode sample-hold
attr source channelBusy
vector 18 NetworkWithShapingAndPolicing.R11.pppg$o[1].channel busy:vector ETV
attr interpolationmode sample-hold
attr source channelBusy
vector 19 NetworkWithShapingAndPolicing.R12.pppg$o[0].channel busy:vector ETV
attr interpolationmode sample-hold
attr source channelBusy
vector 20 NetworkWithShapingAndPolicing.R12.pppg$o[1].channel busy:vector ETV
attr interpolationmode sample-hold
attr source channelBusy
vector 21 NetworkWithShapingAndPolicing.R13.pppg$o[0].channel busy:vector ETV
attr interpolationmode sample-hold
attr source channelBusy
vector 22 NetworkWithShapingAndPolicing.R13.pppg$o[1].channel busy:vector ETV
attr interpolationmode sample-hold
attr source channelBusy
vector 23 NetworkWithShapingAndPolicing.R9.pppg$o[0].channel busy:vector ETV
attr interpolationmode sample-hold
attr source channelBusy
vector 24 NetworkWithShapingAndPolicing.R9.pppg$o[1].channel busy:vector ETV
attr interpolationmode sample-hold
attr source channelBusy
vector 25 NetworkWithShapingAndPolicing.R9.pppg$o[2].channel busy:vector ETV
attr interpolationmode sample-hold
attr source channelBusy
vector 26 NetworkWithShapingAndPolicing.R9.pppg$o[3].channel busy:vector ETV
attr interpolationmode sample-hold
attr source channelBusy
vector 27 NetworkWithShapingAndPolicing.R10.pppg$o[0].channel busy:vector ETV
attr interpolationmode sample-hold
attr source channelBusy
vector 28 NetworkWithShapingAndPolicing.R10.pppg$o[1].channel busy:vector ETV
attr interpolationmode sample-hold
attr source channelBusy
vector 29 NetworkWithShapingAndPolicing.R14.pppg$o[0].channel busy:vector ETV
attr interpolationmode sample-hold
attr source channelBusy
vector 30 NetworkWithShapingAndPolicing.R14.pppg$o[1].channel busy:vector ETV
attr interpolationmode sample-hold
attr source channelBusy
vector 31 NetworkWithShapingAndPolicing.R8.pppg$o[0].channel busy:vector ETV
attr interpolationmode sample-hold
attr source channelBusy
vector 32 NetworkWithShapingAndPolicing.R8.pppg$o[1].channel busy:vector ETV
attr interpolationmode sample-hold
attr source channelBusy
vector 33 NetworkWithShapingAndPolicing.R8.pppg$o[2].channel busy:vector ETV
attr interpolationmode sample-hold
attr source channelBusy
vector 34 NetworkWithShapingAndPolicing.R15.pppg$o[0].channel busy:vector ETV
attr interpolationmode sample-hold
attr source channelBusy
vector 35 NetworkWithShapingAndPolicing.R15.pppg$o[1].channel busy:vector ETV
attr interpolationmode sample-hold
attr source channelBusy
vector 36 NetworkWithShapingAndPolicing.R15.pppg$o[2].channel busy:vector ETV
attr interpolationmode sample-hold
attr source channelBusy
vector 37 NetworkWithShapingAndPolicing.R15.ethg$o[0].channel busy:vector ETV
attr interpolationmode sample-hold
attr source channelBusy
vector 38 NetworkWithShapingAndPolicing.H1.ethg$o[0].channel busy:vector ETV
attr interpolationmode sample-hold
attr source channelBusy
vector 39 NetworkWithShapingAndPolicing.H2.ethg$o[0].channel busy:vector ETV
attr interpolationmode sample-hold
attr source channelBusy
vector 40 NetworkWithShapingAndPolicing.R1.ppp[0].ppp transmissionState:vector ETV
attr interpolationmode sample-hold
attr source transmissionStateChanged
attr title "tx state, vector"
vector 41 NetworkWithShapingAndPolicing.R1.ppp[1].ppp transmissionState:vector ETV
attr interpolationmode sample-hold
attr source transmissionStateChanged
attr title "tx state, vector"
vector 42 NetworkWithShapingAndPolicing.R2.ppp[0].ppp transmissionState:vector ETV
attr interpolationmode sample-hold
attr source transmissionStateChanged
attr title "tx state, vector"
vector 43 NetworkWithShapingAndPolicing.R2.ppp[1].ppp transmissionState:vector ETV
attr interpolationmode sample-hold
attr source transmissionStateChanged
attr title "tx state, vector"
vector 44 NetworkWithShapingAndPolicing.R2.ppp[2].ppp transmissionState:vector ETV
attr interpolationmode sample-hold
attr source transmissionStateChanged
attr title "tx state, vector"
vector 45 NetworkWithShapingAndPolicing.R3.ppp[0].ppp transmissionState:vector ETV
attr interpolationmode sample-hold
attr source transmissionStateChanged
attr title "tx state, vector"
vector 46 NetworkWithShapingAndPolicing.R3.ppp[1].ppp transmissionState:vector ETV
attr interpolationmode sample-hold
attr source transmissionStateChanged
attr title "tx state, vector"
vector 47 NetworkWithShapingAndPolicing.R4.ppp[0].ppp transmissionState:vector ETV
attr interpolationmode sample-hold
attr source transmissionStateChanged
attr title "tx state, vector"
vector 48 NetworkWithShapingAndPolicing.R4.ppp[1].ppp transmissionState:vector ETV
attr interpolationmode sample-hold
attr source transmissionStateChanged
attr title "tx state, vector"
vector 49 NetworkWithShapingAndPolicing.R5.ppp[0].ppp transmissionState:vector ETV
attr interpolationmode sample-hold
attr source transmissionStateChanged
attr title "tx state, vector"
vector 50 NetworkWithShapingAndPolicing.R5.ppp[1].ppp transmissionState:vector ETV
attr interpolationmode sample-hold
attr source transmissionStateChanged
attr title "tx state, vector"
vector 51 NetworkWithShapingAndPolicing.R6.ppp[0].ppp transmissionState:vector ETV
attr interpolationmode sample-hold
attr source transmissionStateChanged
attr title "tx state, vector"
vector 52 NetworkWithShapingAndPolicing.R6.ppp[1].ppp transmissionState:vector ETV
attr interpolationmode sample-hold
attr source transmissionStateChanged
attr title "tx state, vector"
vector 53 NetworkWithShapingAndPolicing.R7.ppp[0].ppp transmissionState:vector ETV
attr interpolationmode sample-hold
attr source transmissionStateChanged
attr title "tx state, vector"
vector 54 NetworkWithShapingAndPolicing.R7.ppp[1].ppp transmissionState:vector ETV
attr interpolationmode sample-hold
attr source transmissionStateChanged
attr title "tx state, vector"
vector 55 NetworkWithShapingAndPolicing.R7.ppp[2].ppp transmissionState:vector ETV
attr interpolationmode sample-hold
attr source transmissionStateChanged
attr title "tx state, vector"
vector 56 NetworkWithShapingAndPolicing.R11.ppp[0].ppp transmissionState:vector ETV
attr interpolationmode sample-hold
attr source transmissionStateChanged
attr title "tx state, vector"
vector 57 NetworkWithShapingAndPolicing.R11.ppp[1].ppp transmissionState:vector ETV
attr interpolationmode sample-hold
attr source transmissionStateChanged
attr title "tx state, vector"
vector 58 NetworkWithShapingAndPolicing.R12.ppp[0].ppp transmissionState:vector ETV
attr interpolationmode sample-hold
attr source transmissionStateChanged
attr title "tx state, vector"
vector 59 NetworkWithShapingAndPolicing.R12.ppp[1].ppp transmissionState:vector ETV
attr interpolationmode sample-hold
attr source transmissionStateChanged
attr title "tx state, vector"
vector 60 NetworkWithShapingAndPolicing.R13.ppp[0].ppp transmissionState:vector ETV
attr interpolationmode sample-hold
attr source transmissionStateChanged
attr title "tx state, vector"
vector 61 NetworkWithShapingAndPolicing.R13.ppp[1].ppp transmissionState:vector ETV
attr interpolationmode sample-hold
attr source transmissionStateChanged
attr title "tx state, vector"
vector 62 NetworkWithShapingAndPolicing.R9.ppp[0].ppp transmissionState:vector ETV
attr interpolationmode sample-hold
attr source transmissionStateChanged
attr title "tx state, vector"
vector 63 NetworkWithShapingAndPolicing.R9.ppp[1].ppp transmissionState:vector ETV
attr interpolationmode sample-hold
attr source transmissionStateChanged
attr title "tx state, vector"
vector 64 NetworkWithShapingAndPolicing.R9.ppp[2].ppp transmissionState:vector ETV
attr interpolationmode sample-hold
attr source transmissionStateChanged
attr title "tx state, vector"
vector 65 NetworkWithShapingAndPolicing.R9.ppp[3].ppp transmissionState:vector ETV
attr interpolationmode sample-hold
attr source transmissionStateChanged
attr title "tx state, vector"
vector 66 NetworkWithShapingAndPolicing.R10.ppp[0].ppp transmissionState:vector ETV
attr interpolationmode sample-hold
attr source transmissionStateChanged
attr title "tx state, vector"
vector 67 NetworkWithShapingAndPolicing.R10.ppp[1].ppp transmissionState:vector ETV
attr interpolationmode sample-hold
attr source transmissionStateChanged
attr title "tx state, vector"
vector 68 NetworkWithShapingAndPolicing.R14.ppp[0].ppp transmissionState:vector ETV
attr interpolationmode sample-hold
attr source transmissionStateChanged
attr title "tx state, vector"
vector 69 NetworkWithShapingAndPolicing.R14.ppp[1].ppp transmissionState:vector ETV
attr interpolationmode sample-hold
attr source transmissionStateChanged
attr title "tx state, vector"
vector 70 NetworkWithShapingAndPolicing.R8.ppp[0].ppp transmissionState:vector ETV
attr interpolationmode sample-hold
attr source transmissionStateChanged
attr title "tx state, vector"
vector 71 NetworkWithShapingAndPolicing.R8.ppp[1].ppp transmissionState:vector ETV
attr interpolationmode sample-hold
attr source transmissionStateChanged
attr title "tx state, vector"
vector 72 NetworkWithShapingAndPolicing.R8.ppp[2].ppp transmissionState:vector ETV
attr interpolationmode sample-hold
attr source transmissionStateChanged
attr title "tx state, vector"
vector 73 NetworkWithShapingAndPolicing.R15.ppp[0].ppp transmissionState:vector ETV
attr interpolationmode sample-hold
attr source transmissionStateChanged
attr title "tx state, vector"
vector 74 NetworkWithShapingAndPolicing.R15.ppp[1].ppp transmissionState:vector ETV
attr interpolationmode sample-hold
attr source transmissionStateChanged
attr title "tx state, vector"
vector 75 NetworkWithShapingAndPolicing.R15.ppp[2].ppp transmissionState:vector ETV
attr interpolationmode sample-hold
attr source transmissionStateChanged
attr title "tx state, vector"
vector 76 NetworkWithShapingAndPolicing.R12.ppp[0].ppp rcvdPkFromHl:vector(packetBytes) ETV
attr interpolationmode none
attr source packetReceivedFromUpper
attr title "packets received from higher layer, vector(packetBytes)"
vector 77 NetworkWithShapingAndPolicing.R12.ppp[0].ppp.queue packetPushed:vector(packetBytes) ETV
attr interpolationmode none
attr title "packet pushed, vector(packetBytes)"
vector 78 NetworkWithShapingAndPolicing.R12.ppp[0].ppp.queue queueLength:vector ETV
attr interpolationmode sample-hold
attr source "count(packetPushed) - count(packetPopped) - count(packetRemoved) - count(packetDropped)"
attr title "queue length, vector"
vector 79 NetworkWithShapingAndPolicing.R12.ppp[0].ppp.queue packetPopped:vector(packetBytes) ETV
attr interpolationmode none
attr title "packet popped, vector(packetBytes)"
vector 80 NetworkWithShapingAndPolicing.R12.ppp[0].ppp.queue queueingTime:vector ETV
attr interpolationmode none
attr source queueingTime(packetPopped)
attr title "queueing times, vector"
attr unit s
vector 81 NetworkWithShapingAndPolicing.R12.ppp[0].ppp txPk:vector(packetBytes) ETV
attr interpolationmode none
attr source packetSentToLower
attr title "packets transmitted, vector(packetBytes)"
vector 82 NetworkWithShapingAndPolicing.R9.ppp[1].ppp rcvdPkFromHl:vector(packetBytes) ETV
attr interpolationmode none
attr source packetReceivedFromUpper
attr title "packets received from higher layer, vector(packetBytes)"
vector 83 NetworkWithShapingAndPolicing.R9.ppp[1].ppp.queue packetPushed:vector(packetBytes) ETV
attr interpolationmode none
attr title "packet pushed, vector(packetBytes)"
vector 84 NetworkWithShapingAndPolicing.R9.ppp[1].ppp.queue queueLength:vector ETV
attr interpolationmode sample-hold
attr source "count(packetPushed) - count(packetPopped) - count(packetRemoved) - count(packetDropped)"
attr title "queue length, vector"
vector 85 NetworkWithShapingAndPolicing.R9.ppp[1].ppp.queue packetPopped:vector(packetBytes) ETV
attr interpolationmode none
attr title "packet popped, vector(packetBytes)"
vector 86 NetworkWithShapingAndPolicing.R9.ppp[1].ppp.queue queueingTime:vector ETV
attr interpolationmode none
attr source queueingTime(packetPopped)
attr title "queueing times, vector"
attr unit s
vector 87 NetworkWithShapingAndPolicing.R9.ppp[1].ppp txPk:vector(packetBytes) ETV
attr interpolationmode none
attr source packetSentToLower
attr title "packets transmitted, vector(packetBytes)"
vector 88 NetworkWithShapingAndPolicing.R5.ppp[0].ppp rcvdPkFromHl:vector(packetBytes) ETV
attr interpolationmode none
attr source packetReceivedFromUpper
attr title "packets received from higher layer, vector(packetBytes)"
vector 89 NetworkWithShapingAndPolicing.R5.ppp[0].ppp.queue packetPushed:vector(packetBytes) ETV
attr interpolationmode none
attr title "packet pushed, vector(packetBytes)"
vector 90 NetworkWithShapingAndPolicing.R5.ppp[0].ppp.queue queueLength:vector ETV
attr interpolationmode sample-hold
attr source "count(packetPushed) - count(packetPopped) - count(packetRemoved) - count(packetDropped)"
attr title "queue length, vector"
vector 91 NetworkWithShapingAndPolicing.R5.ppp[0].ppp.queue packetPopped:vector(packetBytes) ETV
attr interpolationmode none
attr title "packet popped, vector(packetBytes)"
vector 92 NetworkWithShapingAndPolicing.R5.ppp[0].ppp.queue queueingTime:vector ETV
attr interpolationmode none
attr source queueingTime(packetPopped)
attr title "queueing times, vector"
attr unit s
vector 93 NetworkWithShapingAndPolicing.R5.ppp[0].ppp txPk:vector(packetBytes) ETV
attr interpolationmode none
attr source packetSentToLower
attr title "packets transmitted, vector(packetBytes)"
vector 94 NetworkWithShapingAndPolicing.R13.ppp[0].ppp rcvdPkFromHl:vector(packetBytes) ETV
attr interpolationmode none
attr source packetReceivedFromUpper
attr title "packets received from higher layer, vector(packetBytes)"
vector 95 NetworkWithShapingAndPolicing.R13.ppp[0].ppp.queue packetPushed:vector(packetBytes) ETV
attr interpolationmode none
attr title "packet pushed, vector(packetBytes)"
vector 96 NetworkWithShapingAndPolicing.R13.ppp[0].ppp.queue queueLength:vector ETV
attr interpolationmode sample-hold
attr source "count(packetPushed) - count(packetPopped) - count(packetRemoved) - count(packetDropped)"
attr title "queue length, vector"
vector 97 NetworkWithShapingAndPolicing.R13.ppp[0].ppp.queue packetPopped:vector(packetBytes) ETV
attr interpolationmode none
attr title "packet popped, vector(packetBytes)"
vector 98 NetworkWithShapingAndPolicing.R13.ppp[0].ppp.queue queueingTime:vector ETV
attr interpolationmode none
attr source queueingTime(packetPopped)
attr title "queueing times, vector"
attr unit s
vector 99 NetworkWithShapingAndPolicing.R13.ppp[0].ppp txPk:vector(packetBytes) ETV
attr interpolationmode none
attr source packetSentToLower
attr title "packets transmitted, vector(packetBytes)"
vector 100 NetworkWithShapingAndPolicing.R2.ppp[1].ppp rcvdPkFromHl:vector(packetBytes) ETV
attr interpolationmode none
attr source packetReceivedFromUpper
attr title "packets received from higher layer, vector(packetBytes)"
vector 101 NetworkWithShapingAndPolicing.R2.ppp[1].ppp.queue packetPushed:vector(packetBytes) ETV
attr interpolationmode none
attr title "packet pushed, vector(packetBytes)"
vector 102 NetworkWithShapingAndPolicing.R2.ppp[1].ppp.queue queueLength:vector ETV
attr interpolationmode sample-hold
attr source "count(packetPushed) - count(packetPopped) - count(packetRemoved) - count(packetDropped)"
attr title "queue length, vector"
vector 103 NetworkWithShapingAndPolicing.R2.ppp[1].ppp.queue packetPopped:vector(packetBytes) ETV
attr interpolationmode none
attr title "packet popped, vector(packetBytes)"
vector 104 NetworkWithShapingAndPolicing.R2.ppp[1].ppp.queue queueingTime:vector ETV
attr interpolationmode none
attr source queueingTime(packetPopped)
attr title "queueing times, vector"
attr unit s
vector 105 NetworkWithShapingAndPolicing.R2.ppp[1].ppp txPk:vector(packetBytes) ETV
attr interpolationmode none
attr source packetSentToLower
attr title "packets transmitted, vector(packetBytes)"
vector 106 NetworkWithShapingAndPolicing.R15.ppp[2].ppp rcvdPkFromHl:vector(packetBytes) ETV
attr interpolationmode none
attr source packetReceivedFromUpper
attr title "packets received from higher layer, vector(packetBytes)"
vector 107 NetworkWithShapingAndPolicing.R15.ppp[2].ppp.queue packetPushed:vector(packetBytes) ETV
attr interpolationmode none
attr title "packet pushed, vector(packetBytes)"
vector 108 NetworkWithShapingAndPolicing.R15.ppp[2].ppp.queue queueLength:vector ETV
attr interpolationmode sample-hold
attr source "count(packetPushed) - count(packetPopped) - count(packetRemoved) - count(packetDropped)"
attr title "queue length, vector"
vector 109 NetworkWithShapingAndPolicing.R15.ppp[2].ppp.queue packetPopped:vector(packetBytes) ETV
attr interpolationmode none
attr title "packet popped, vector(packetBytes)"
vector 110 NetworkWithShapingAndPolicing.R15.ppp[2].ppp.queue queueingTime:vector ETV
attr interpolationmode none
attr source queueingTime(packetPopped)
attr title "queueing times, vector"
attr unit s
vector 111 NetworkWithShapingAndPolicing.R15.ppp[2].ppp txPk:vector(packetBytes) ETV
attr interpolationmode none
attr source packetSentToLower
attr title "packets transmitted, vector(packetBytes)"
vector 112 NetworkWithShapingAndPolicing.R10.ppp[1].ppp rcvdPkFromHl:vector(packetBytes) ETV
attr interpolationmode none
attr source packetReceivedFromUpper
attr title "packets received from higher layer, vector(packetBytes)"
vector 113 NetworkWithShapingAndPolicing.R10.ppp[1].ppp.queue packetPushed:vector(packetBytes) ETV
attr interpolationmode none
attr title "packet pushed, vector(packetBytes)"
vector 114 NetworkWithShapingAndPolicing.R10.ppp[1].ppp.queue queueLength:vector ETV
attr interpolationmode sample-hold
attr source "count(packetPushed) - count(packetPopped) - count(packetRemoved) - count(packetDropped)"
attr title "queue length, vector"
vector 115 NetworkWithShapingAndPolicing.R10.ppp[1].ppp.queue packetPopped:vector(packetBytes) ETV
attr interpolationmode none
attr title "packet popped, vector(packetBytes)"
vector 116 NetworkWithShapingAndPolicing.R10.ppp[1].ppp.queue queueingTime:vector ETV
attr interpolationmode none
attr source queueingTime(packetPopped)
attr title "queueing times, vector"
attr unit s
vector 117 NetworkWithShapingAndPolicing.R10.ppp[1].ppp txPk:vector(packetBytes) ETV
attr interpolationmode none
attr source packetSentToLower
attr title "packets transmitted, vector(packetBytes)"
vector 118 NetworkWithShapingAndPolicing.R5.ppp[1].ppp rcvdPkFromHl:vector(packetBytes) ETV
attr interpolationmode none
attr source packetReceivedFromUpper
attr title "packets received from higher layer, vector(packetBytes)"
vector 119 NetworkWithShapingAndPolicing.R5.ppp[1].ppp.queue packetPushed:vector(packetBytes) ETV
attr interpolationmode none
attr title "packet pushed, vector(packetBytes)"
vector 120 NetworkWithShapingAndPolicing.R5.ppp[1].ppp.queue queueLength:vector ETV
attr interpolationmode sample-hold
attr source "count(packetPushed) - count(packetPopped) - count(packetRemoved) - count(packetDropped)"
attr title "queue length, vector"
vector 121 NetworkWithShapingAndPolicing.R5.ppp[1].ppp.queue packetPopped:vector(packetBytes) ETV
attr interpolationmode none
attr title "packet popped, vector(packetBytes)"
vector 122 NetworkWithShapingAndPolicing.R5.ppp[1].ppp.queue queueingTime:vector ETV
attr interpolationmode none
attr source queueingTime(packetPopped)
attr title "queueing times, vector"
attr unit s
vector 123 NetworkWithShapingAndPolicing.R5.ppp[1].ppp txPk:vector(packetBytes) ETV
attr interpolationmode none
attr source packetSentToLower
attr title "packets transmitted, vector(packetBytes)"
vector 124 NetworkWithShapingAndPolicing.R4.ppp[0].ppp rcvdPkFromHl:vector(packetBytes) ETV
attr interpolationmode none
attr source packetReceivedFromUpper
attr title "packets received from higher layer, vector(packetBytes)"
vector 125 NetworkWithShapingAndPolicing.R4.ppp[0].ppp.queue packetPushed:vector(packetBytes) ETV
attr interpolationmode none
attr title "packet pushed, vector(packetBytes)"
vector 126 NetworkWithShapingAndPolicing.R4.ppp[0].ppp.queue queueLength:vector ETV
attr interpolationmode sample-hold
attr source "count(packetPushed) - count(packetPopped) - count(packetRemoved) - count(packetDropped)"
attr title "queue length, vector"
vector 127 NetworkWithShapingAndPolicing.R4.ppp[0].ppp.queue packetPopped:vector(packetBytes) ETV
attr interpolationmode none
attr title "packet popped, vector(packetBytes)"
vector 128 NetworkWithShapingAndPolicing.R4.ppp[0].ppp.queue queueingTime:vector ETV
attr interpolationmode none
attr source queueingTime(packetPopped)
attr title "queueing times, vector"
attr unit s
vector 129 NetworkWithShapingAndPolicing.R4.ppp[0].ppp txPk:vector(packetBytes) ETV
attr interpolationmode none
attr source packetSentToLower
attr title "packets transmitted, vector(packetBytes)"
vector 130 NetworkWithShapingAndPolicing.R15.ppp[1].ppp rxPkOk:vector(packetBytes) ETV
attr interpolationmode none
attr source rxPkOk
attr title "packets received OK, vector(packetBytes)"
vector 131 NetworkWithShapingAndPolicing.R15.ppp[1].ppp passedUpPk:vector(packetBytes) ETV
attr interpolationmode none
attr source packetSentToUpper
attr title "packets passed to higher layer, vector(packetBytes)"
vector 132 NetworkWithShapingAndPolicing.R13.ppp[1].ppp rcvdPkFromHl:vector(packetBytes) ETV
attr interpolationmode none
attr source packetReceivedFromUpper
attr title "packets received from higher layer, vector(packetBytes)"
vector 133 NetworkWithShapingAndPolicing.R13.ppp[1].ppp.queue packetPushed:vector(packetBytes) ETV
attr interpolationmode none
attr title "packet pushed, vector(packetBytes)"
vector 134 NetworkWithShapingAndPolicing.R13.ppp[1].ppp.queue queueLength:vector ETV
attr interpolationmode sample-hold
attr source "count(packetPushed) - count(packetPopped) - count(packetRemoved) - count(packetDropped)"
attr title "queue length, vector"
vector 135 NetworkWithShapingAndPolicing.R13.ppp[1].ppp.queue packetPopped:vector(packetBytes) ETV
attr interpolationmode none
attr title "packet popped, vector(packetBytes)"
vector 136 NetworkWithShapingAndPolicing.R13.ppp[1].ppp.queue queueingTime:vector ETV
attr interpolationmode none
attr source queueingTime(packetPopped)
attr title "queueing times, vector"
attr unit s
vector 137 NetworkWithShapingAndPolicing.R13.ppp[1].ppp txPk:vector(packetBytes) ETV
attr interpolationmode none
attr source packetSentToLower
attr title "packets transmitted, vector(packetBytes)"
vector 138 NetworkWithShapingAndPolicing.R2.ppp[0].ppp rcvdPkFromHl:vector(packetBytes) ETV
attr interpolationmode none
attr source packetReceivedFromUpper
attr title "packets received from higher layer, vector(packetBytes)"
vector 139 NetworkWithShapingAndPolicing.R2.ppp[0].ppp.queue packetPushed:vector(packetBytes) ETV
attr interpolationmode none
attr title "packet pushed, vector(packetBytes)"
vector 140 NetworkWithShapingAndPolicing.R2.ppp[0].ppp.queue queueLength:vector ETV
attr interpolationmode sample-hold
attr source "count(packetPushed) - count(packetPopped) - count(packetRemoved) - count(packetDropped)"
attr title "queue length, vector"
vector 141 NetworkWithShapingAndPolicing.R2.ppp[0].ppp.queue packetPopped:vector(packetBytes) ETV
attr interpolationmode none
attr title "packet popped, vector(packetBytes)"
vector 142 NetworkWithShapingAndPolicing.R2.ppp[0].ppp.queue queueingTime:vector ETV
attr interpolationmode none
attr source queueingTime(packetPopped)
attr title "queueing times, vector"
attr unit s
vector 143 NetworkWithShapingAndPolicing.R2.ppp[0].ppp txPk:vector(packetBytes) ETV
attr interpolationmode none
attr source packetSentToLower
attr title "packets transmitted, vector(packetBytes)"
vector 144 NetworkWithShapingAndPolicing.R9.ppp[2].ppp rcvdPkFromHl:vector(packetBytes) ETV
attr interpolationmode none
attr source packetReceivedFromUpper
attr title "packets received from higher layer, vector(packetBytes)"
vector 145 NetworkWithShapingAndPolicing.R9.ppp[2].ppp.queue packetPushed:vector(packetBytes) ETV
attr interpolationmode none
attr title "packet pushed, vector(packetBytes)"
vector 146 NetworkWithShapingAndPolicing.R9.ppp[2].ppp.queue queueLength:vector ETV
attr interpolationmode sample-hold
attr source "count(packetPushed) - count(packetPopped) - count(packetRemoved) - count(packetDropped)"
attr title "queue length, vector"
vector 147 NetworkWithShapingAndPolicing.R9.ppp[2].ppp.queue packetPopped:vector(packetBytes) ETV
attr interpolationmode none
attr title "packet popped, vector(packetBytes)"
vector 148 NetworkWithShapingAndPolicing.R9.ppp[2].ppp.queue queueingTime:vector ETV
attr interpolationmode none
attr source queueingTime(packetPopped)
attr title "queueing times, vector"
attr unit s
vector 149 NetworkWithShapingAndPolicing.R9.ppp[2].ppp txPk:vector(packetBytes) ETV
attr interpolationmode none
attr source packetSentToLower
attr title "packets transmitted, vector(packetBytes)"
vector 150 NetworkWithShapingAndPolicing.R3.ppp[1].ppp rcvdPkFromHl:vector(packetBytes) ETV
attr interpolationmode none
attr source packetReceivedFromUpper
attr title "packets received from higher layer, vector(packetBytes)"
vector 151 NetworkWithShapingAndPolicing.R3.ppp[1].ppp.queue packetPushed:vector(packetBytes) ETV
attr interpolationmode none
attr title "packet pushed, vector(packetBytes)"
vector 152 NetworkWithShapingAndPolicing.R3.ppp[1].ppp.queue queueLength:vector ETV
attr interpolationmode sample-hold
attr source "count(packetPushed) - count(packetPopped) - count(packetRemoved) - count(packetDropped)"
attr title "queue length, vector"
vector 153 NetworkWithShapingAndPolicing.R3.ppp[1].ppp.queue packetPopped:vector(packetBytes) ETV
attr interpolationmode none
attr title "packet popped, vector(packetBytes)"
vector 154 NetworkWithShapingAndPolicing.R3.ppp[1].ppp.queue queueingTime:vector ETV
attr interpolationmode none
attr source queueingTime(packetPopped)
attr title "queueing times, vector"
attr unit s
vector 155 NetworkWithShapingAndPolicing.R3.ppp[1].ppp txPk:vector(packetBytes) ETV
attr interpolationmode none
attr source packetSentToLower
attr title "packets transmitted, vector(packetBytes)"
vector 156 NetworkWithShapingAndPolicing.R2.ppp[2].ppp rcvdPkFromHl:vector(packetBytes) ETV
attr interpolationmode none
attr source packetReceivedFromUpper
attr title "packets received from higher layer, vector(packetBytes)"
vector 157 NetworkWithShapingAndPolicing.R2.ppp[2].ppp.queue packetPushed:vector(packetBytes) ETV
attr interpolationmode none
attr title "packet pushed, vector(packetBytes)"
vector 158 NetworkWithShapingAndPolicing.R2.ppp[2].ppp.queue queueLength:vector ETV
attr interpolationmode sample-hold
attr source "count(packetPushed) - count(packetPopped) - count(packetRemoved) - count(packetDropped)"
attr title "queue length, vector"
vector 159 NetworkWithShapingAndPolicing.R2.ppp[2].ppp.queue packetPopped:vector(packetBytes) ETV
attr interpolationmode none
attr title "packet popped, vector(packetBytes)"
vector 160 NetworkWithShapingAndPolicing.R2.ppp[2].ppp.queue queueingTime:vector ETV
attr interpolationmode none
attr source queueingTime(packetPopped)
attr title "queueing times, vector"
attr unit s
vector 161 NetworkWithShapingAndPolicing.R2.ppp[2].ppp txPk:vector(packetBytes) ETV
attr interpolationmode none
attr source packetSentToLower
attr title "packets transmitted, vector(packetBytes)"
vector 162 NetworkWithShapingAndPolicing.R7.ppp[0].ppp rcvdPkFromHl:vector(packetBytes) ETV
attr interpolationmode none
attr source packetReceivedFromUpper
attr title "packets received from higher layer, vector(packetBytes)"
vector 163 NetworkWithShapingAndPolicing.R7.ppp[0].ppp.queue packetPushed:vector(packetBytes) ETV
attr interpolationmode none
attr title "packet pushed, vector(packetBytes)"
vector 164 NetworkWithShapingAndPolicing.R7.ppp[0].ppp.queue queueLength:vector ETV
attr interpolationmode sample-hold
attr source "count(packetPushed) - count(packetPopped) - count(packetRemoved) - count(packetDropped)"
attr title "queue length, vector"
vector 165 NetworkWithShapingAndPolicing.R7.ppp[0].ppp.queue packetPopped:vector(packetBytes) ETV
attr interpolationmode none
attr title "packet popped, vector(packetBytes)"
vector 166 NetworkWithShapingAndPolicing.R7.ppp[0].ppp.queue queueingTime:vector ETV
attr interpolationmode none
attr source queueingTime(packetPopped)
attr title "queueing times, vector"
attr unit s
vector 167 NetworkWithShapingAndPolicing.R7.ppp[0].ppp txPk:vector(packetBytes) ETV
attr interpolationmode none
attr source packetSentToLower
attr title "packets transmitted, vector(packetBytes)"
vector 168 NetworkWithShapingAndPolicing.R6.ppp[1].ppp rcvdPkFromHl:vector(packetBytes) ETV
attr interpolationmode none
attr source packetReceivedFromUpper
attr title "packets received from higher layer, vector(packetBytes)"
vector 169 NetworkWithShapingAndPolicing.R6.ppp[1].ppp.queue packetPushed:vector(packetBytes) ETV
attr interpolationmode none
attr title "packet pushed, vector(packetBytes)"
vector 170 NetworkWithShapingAndPolicing.R6.ppp[1].ppp.queue queueLength:vector ETV
attr interpolationmode sample-hold
attr source "count(packetPushed) - count(packetPopped) - count(packetRemoved) - count(packetDropped)"
attr title "queue length, vector"
vector 171 NetworkWithShapingAndPolicing.R6.ppp[1].ppp.queue packetPopped:vector(packetBytes) ETV
attr interpolationmode none
attr title "packet popped, vector(packetBytes)"
vector 172 NetworkWithShapingAndPolicing.R6.ppp[1].ppp.queue queueingTime:vector ETV
attr interpolationmode none
attr source queueingTime(packetPopped)
attr title "queueing times, vector"
attr unit s
vector 173 NetworkWithShapingAndPolicing.R6.ppp[1].ppp txPk:vector(packetBytes) ETV
attr interpolationmode none
attr source packetSentToLower
attr title "packets transmitted, vector(packetBytes)"
vector 174 NetworkWithShapingAndPolicing.R14.ppp[1].ppp rcvdPkFromHl:vector(packetBytes) ETV
attr interpolationmode none
attr source packetReceivedFromUpper
attr title "packets received from higher layer, vector(packetBytes)"
vector 175 NetworkWithShapingAndPolicing.R14.ppp[1].ppp.queue packetPushed:vector(packetBytes) ETV
attr interpolationmode none
attr title "packet pushed, vector(packetBytes)"
vector 176 NetworkWithShapingAndPolicing.R14.ppp[1].ppp.queue queueLength:vector ETV
attr interpolationmode sample-hold
attr source "count(packetPushed) - count(packetPopped) - count(packetRemoved) - count(packetDropped)"
attr title "queue length, vector"
vector 177 NetworkWithShapingAndPolicing.R14.ppp[1].ppp.queue packetPopped:vector(packetBytes) ETV
attr interpolationmode none
attr title "packet popped, vector(packetBytes)"
vector 178 NetworkWithShapingAndPolicing.R14.ppp[1].ppp.queue queueingTime:vector ETV
attr interpolationmode none
attr source queueingTime(packetPopped)
attr title "queueing times, vector"
attr unit s
vector 179 NetworkWithShapingAndPolicing.R14.ppp[1].ppp txPk:vector(packetBytes) ETV
attr interpolationmode none
attr source packetSentToLower
attr title "packets transmitted, vector(packetBytes)"
vector 180 NetworkWithShapingAndPolicing.R7.ppp[1].ppp rcvdPkFromHl:vector(packetBytes) ETV
attr interpolationmode none
attr source packetReceivedFromUpper
attr title "packets received from higher layer, vector(packetBytes)"
vector 181 NetworkWithShapingAndPolicing.R7.ppp[1].ppp.queue packetPushed:vector(packetBytes) ETV
attr interpolationmode none
attr title "packet pushed, vector(packetBytes)"
vector 182 NetworkWithShapingAndPolicing.R7.ppp[1].ppp.queue queueLength:vector ETV
attr interpolationmode sample-hold
attr source "count(packetPushed) - count(packetPopped) - count(packetRemoved) - count(packetDropped)"
attr title "queue length, vector"
vector 183 NetworkWithShapingAndPolicing.R7.ppp[1].ppp.queue packetPopped:vector(packetBytes) ETV
attr interpolationmode none
attr title "packet popped, vector(packetBytes)"
vector 184 NetworkWithShapingAndPolicing.R7.ppp[1].ppp.queue queueingTime:vector ETV
attr interpolationmode none
attr source queueingTime(packetPopped)
attr title "queueing times, vector"
attr unit s
vector 185 NetworkWithShapingAndPolicing.R7.ppp[1].ppp txPk:vector(packetBytes) ETV
attr interpolationmode none
attr source packetSentToLower
attr title "packets transmitted, vector(packetBytes)"
vector 186 NetworkWithShapingAndPolicing.R9.ppp[0].ppp rcvdPkFromHl:vector(packetBytes) ETV
attr interpolationmode none
attr source packetReceivedFromUpper
attr title "packets received from higher layer, vector(packetBytes)"
vector 187 NetworkWithShapingAndPolicing.R9.ppp[0].ppp.queue packetPushed:vector(packetBytes) ETV
attr interpolationmode none
attr title "packet pushed, vector(packetBytes)"
vector 188 NetworkWithShapingAndPolicing.R9.ppp[0].ppp.queue queueLength:vector ETV
attr interpolationmode sample-hold
attr source "count(packetPushed) - count(packetPopped) - count(packetRemoved) - count(packetDropped)"
attr title "queue length, vector"
vector 189 NetworkWithShapingAndPolicing.R9.ppp[0].ppp.queue packetPopped:vector(packetBytes) ETV
attr interpolationmode none
attr title "packet popped, vector(packetBytes)"
vector 190 NetworkWithShapingAndPolicing.R9.ppp[0].ppp.queue queueingTime:vector ETV
attr interpolationmode none
attr source queueingTime(packetPopped)
attr title "queueing times, vector"
attr unit s
vector 191 NetworkWithShapingAndPolicing.R9.ppp[0].ppp txPk:vector(packetBytes) ETV
attr interpolationmode none
attr source packetSentToLower
attr title "packets transmitted, vector(packetBytes)"
vector 192 NetworkWithShapingAndPolicing.R8.ppp[2].egressTC.mfClassifier pkClass:vector ETV
attr interpolationmode none
attr source pkClass
attr title "packet class, vector"
vector 193 NetworkWithShapingAndPolicing.R8.ppp[2].egressTC.beMarker packetMarked:vector(packetBytes) ETV
attr interpolationmode none
attr source packetMarked
attr title "packets marked, vector(packetBytes)"
vector 194 NetworkWithShapingAndPolicing.R8.ppp[2].ppp rcvdPkFromHl:vector(packetBytes) ETV
attr interpolationmode none
attr source packetReceivedFromUpper
attr title "packets received from higher layer, vector(packetBytes)"
vector 195 NetworkWithShapingAndPolicing.R8.ppp[2].ppp.queue packetPushed:vector(packetBytes) ETV
attr interpolationmode none
attr title "packet pushed, vector(packetBytes)"
vector 196 NetworkWithShapingAndPolicing.R8.ppp[2].ppp.queue queueLength:vector ETV
attr interpolationmode sample-hold
attr source "count(packetPushed) - count(packetPopped) - count(packetRemoved) - count(packetDropped)"
attr title "queue length, vector"
vector 197 NetworkWithShapingAndPolicing.R8.ppp[2].ppp.queue packetPopped:vector(packetBytes) ETV
attr interpolationmode none
attr title "packet popped, vector(packetBytes)"
vector 198 NetworkWithShapingAndPolicing.R8.ppp[2].ppp.queue queueingTime:vector ETV
attr interpolationmode none
attr source queueingTime(packetPopped)
attr title "queueing times, vector"
attr unit s
vector 199 NetworkWithShapingAndPolicing.R8.ppp[2].ppp txPk:vector(packetBytes) ETV
attr interpolationmode none
attr source packetSentToLower
attr title "packets transmitted, vector(packetBytes)"
vector 200 NetworkWithShapingAndPolicing.R9.ppp[3].ppp rcvdPkFromHl:vector(packetBytes) ETV
attr interpolationmode none
attr source packetReceivedFromUpper
attr title "packets received from higher layer, vector(packetBytes)"
vector 201 NetworkWithShapingAndPolicing.R9.ppp[3].ppp.queue packetPushed:vector(packetBytes) ETV
attr interpolationmode none
attr title "packet pushed, vector(packetBytes)"
vector 202 NetworkWithShapingAndPolicing.R9.ppp[3].ppp.queue queueLength:vector ETV
attr interpolationmode sample-hold
attr source "count(packetPushed) - count(packetPopped) - count(packetRemoved) - count(packetDropped)"
attr title "queue length, vector"
vector 203 NetworkWithShapingAndPolicing.R9.ppp[3].ppp.queue packetPopped:vector(packetBytes) ETV
attr interpolationmode none
attr title "packet popped, vector(packetBytes)"
vector 204 NetworkWithShapingAndPolicing.R9.ppp[3].ppp.queue queueingTime:vector ETV
attr interpolationmode none
attr source queueingTime(packetPopped)
attr title "queueing times, vector"
attr unit s
vector 205 NetworkWithShapingAndPolicing.R9.ppp[3].ppp txPk:vector(packetBytes) ETV
attr interpolationmode none
attr source packetSentToLower
attr title "packets transmitted, vector(packetBytes)"
vector 206 NetworkWithShapingAndPolicing.R8.ppp[0].ppp rcvdPkFromHl:vector(packetBytes) ETV
attr interpolationmode none
attr source packetReceivedFromUpper
attr title "packets received from higher layer, vector(packetBytes)"
vector 207 NetworkWithShapingAndPolicing.R8.ppp[0].ppp.queue packetPushed:vector(packetBytes) ETV
attr interpolationmode none
attr title "packet pushed, vector(packetBytes)"
vector 208 NetworkWithShapingAndPolicing.R8.ppp[0].ppp.queue queueLength:vector ETV
attr interpolationmode sample-hold
attr source "count(packetPushed) - count(packetPopped) - count(packetRemoved) - count(packetDropped)"
attr title "queue length, vector"
vector 209 NetworkWithShapingAndPolicing.R8.ppp[0].ppp.queue packetPopped:vector(packetBytes) ETV
attr interpolationmode none
attr title "packet popped, vector(packetBytes)"
vector 210 NetworkWithShapingAndPolicing.R8.ppp[0].ppp.queue queueingTime:vector ETV
attr interpolationmode none
attr source queueingTime(packetPopped)
attr title "queueing times, vector"
attr unit s
vector 211 NetworkWithShapingAndPolicing.R8.ppp[0].ppp txPk:vector(packetBytes) ETV
attr interpolationmode none
attr source packetSentToLower
attr title "packets transmitted, vector(packetBytes)"
vector 212 NetworkWithShapingAndPolicing.R15.ppp[1].ppp rcvdPkFromHl:vector(packetBytes) ETV
attr interpolationmode none
attr source packetReceivedFromUpper
attr title "packets received from higher layer, vector(packetBytes)"
vector 213 NetworkWithShapingAndPolicing.R15.ppp[1].ppp.queue packetPushed:vector(packetBytes) ETV
attr interpolationmode none
attr title "packet pushed, vector(packetBytes)"
vector 214 NetworkWithShapingAndPolicing.R15.ppp[1].ppp.queue queueLength:vector ETV
attr interpolationmode sample-hold
attr source "count(packetPushed) - count(packetPopped) - count(packetRemoved) - count(packetDropped)"
attr title "queue length, vector"
vector 215 NetworkWithShapingAndPolicing.R15.ppp[1].ppp.queue packetPopped:vector(packetBytes) ETV
attr interpolationmode none
attr title "packet popped, vector(packetBytes)"
vector 216 NetworkWithShapingAndPolicing.R15.ppp[1].ppp.queue queueingTime:vector ETV
attr interpolationmode none
attr source queueingTime(packetPopped)
attr title "queueing times, vector"
attr unit s
vector 217 NetworkWithShapingAndPolicing.R15.ppp[1].ppp txPk:vector(packetBytes) ETV
attr interpolationmode none
attr source packetSentToLower
attr title "packets transmitted, vector(packetBytes)"
vector 218 NetworkWithShapingAndPolicing.R14.ppp[0].ppp rcvdPkFromHl:vector(packetBytes) ETV
attr interpolationmode none
attr source packetReceivedFromUpper
attr title "packets received from higher layer, vector(packetBytes)"
vector 219 NetworkWithShapingAndPolicing.R14.ppp[0].ppp.queue packetPushed:vector(packetBytes) ETV
attr interpolationmode none
attr title "packet pushed, vector(packetBytes)"
vector 220 NetworkWithShapingAndPolicing.R14.ppp[0].ppp.queue queueLength:vector ETV
attr interpolationmode sample-hold
attr source "count(packetPushed) - count(packetPopped) - count(packetRemoved) - count(packetDropped)"
attr title "queue length, vector"
vector 221 NetworkWithShapingAndPolicing.R14.ppp[0].ppp.queue packetPopped:vector(packetBytes) ETV
attr interpolationmode none
attr title "packet popped, vector(packetBytes)"
vector 222 NetworkWithShapingAndPolicing.R14.ppp[0].ppp.queue queueingTime:vector ETV
attr interpolationmode none
attr source queueingTime(packetPopped)
attr title "queueing times, vector"
attr unit s
vector 223 NetworkWithShapingAndPolicing.R14.ppp[0].ppp txPk:vector(packetBytes) ETV
attr interpolationmode none
attr source packetSentToLower
attr title "packets transmitted, vector(packetBytes)"
vector 224 NetworkWithShapingAndPolicing.R12.ppp[1].ppp rcvdPkFromHl:vector(packetBytes) ETV
attr interpolationmode none
attr source packetReceivedFromUpper
attr title "packets received from higher layer, vector(packetBytes)"
vector 225 NetworkWithShapingAndPolicing.R12.ppp[1].ppp.queue packetPushed:vector(packetBytes) ETV
attr interpolationmode none
attr title "packet pushed, vector(packetBytes)"
vector 226 NetworkWithShapingAndPolicing.R12.ppp[1].ppp.queue queueLength:vector ETV
attr interpolationmode sample-hold
attr source "count(packetPushed) - count(packetPopped) - count(packetRemoved) - count(packetDropped)"
attr title "queue length, vector"
vector 227 NetworkWithShapingAndPolicing.R12.ppp[1].ppp.queue packetPopped:vector(packetBytes) ETV
attr interpolationmode none
attr title "packet popped, vector(packetBytes)"
vector 228 NetworkWithShapingAndPolicing.R12.ppp[1].ppp.queue queueingTime:vector ETV
attr interpolationmode none
attr source queueingTime(packetPopped)
attr title "queueing times, vector"
attr unit s
vector 229 NetworkWithShapingAndPolicing.R12.ppp[1].ppp txPk:vector(packetBytes) ETV
attr interpolationmode none
attr source packetSentToLower
attr title "packets transmitted, vector(packetBytes)"
vector 230 NetworkWithShapingAndPolicing.R4.ppp[1].ppp rcvdPkFromHl:vector(packetBytes) ETV
attr interpolationmode none
attr source packetReceivedFromUpper
attr title "packets received from higher layer, vector(packetBytes)"
vector 231 NetworkWithShapingAndPolicing.R4.ppp[1].ppp.queue packetPushed:vector(packetBytes) ETV
attr interpolationmode none
attr title "packet pushed, vector(packetBytes)"
vector 232 NetworkWithShapingAndPolicing.R4.ppp[1].ppp.queue queueLength:vector ETV
attr interpolationmode sample-hold
attr source "count(packetPushed) - count(packetPopped) - count(packetRemoved) - count(packetDropped)"
attr title "queue length, vector"
vector 233 NetworkWithShapingAndPolicing.R4.ppp[1].ppp.queue packetPopped:vector(packetBytes) ETV
attr interpolationmode none
attr title "packet popped, vector(packetBytes)"
vector 234 NetworkWithShapingAndPolicing.R4.ppp[1].ppp.queue queueingTime:vector ETV
attr interpolationmode none
attr source queueingTime(packetPopped)
attr title "queueing times, vector"
attr unit s
vector 235 NetworkWithShapingAndPolicing.R4.ppp[1].ppp txPk:vector(packetBytes) ETV
attr interpolationmode none
attr source packetSentToLower
attr title "packets transmitted, vector(packetBytes)"
vector 236 NetworkWithShapingAndPolicing.R1.eth[0].encap encapPk:vector(packetBytes) ETV
attr interpolationmode none
attr source encapPk
attr title "packets encapsulated, vector(packetBytes)"
vector 237 NetworkWithShapingAndPolicing.R1.eth[0].mac packetReceivedFromUpper:vector(packetBytes) ETV
attr interpolationmode none
attr source packetReceivedFromUpper
attr title "packet bytes from higher layer, vector(packetBytes)"
vector 238 NetworkWithShapingAndPolicing.R1.eth[0].mac.queue packetPushed:vector(packetBytes) ETV
attr interpolationmode none
attr source localSignal(packetPushed)
attr title "packets pushed, vector(packetBytes)"
vector 239 NetworkWithShapingAndPolicing.R1.eth[0].mac.queue queueLength:vector ETV
attr interpolationmode sample-hold
attr source "count(localSignal(packetPushed)) - count(localSignal(packetPopped)) - count(localSignal(packetRemoved)) - count(packetDropped)"
attr title "queue length, vector"
vector 240 NetworkWithShapingAndPolicing.R1.eth[0].mac.queue.classifier packetPushed:vector(packetBytes) ETV
attr interpolationmode none
attr title "packets pushed, vector(packetBytes)"
vector 241 NetworkWithShapingAndPolicing.R1.eth[0].mac.queue.dataQueue packetPushed:vector(packetBytes) ETV
attr interpolationmode none
attr title "packet pushed, vector(packetBytes)"
vector 242 NetworkWithShapingAndPolicing.R1.eth[0].mac.queue.dataQueue queueLength:vector ETV
attr interpolationmode sample-hold
attr source "count(packetPushed) - count(packetPopped) - count(packetRemoved) - count(packetDropped)"
attr title "queue length, vector"
vector 243 NetworkWithShapingAndPolicing.R1.eth[0].mac.queue.dataQueue packetPopped:vector(packetBytes) ETV
attr interpolationmode none
attr title "packet popped, vector(packetBytes)"
vector 244 NetworkWithShapingAndPolicing.R1.eth[0].mac.queue.dataQueue queueingTime:vector ETV
attr interpolationmode none
attr source queueingTime(packetPopped)
attr title "queueing times, vector"
attr unit s
vector 245 NetworkWithShapingAndPolicing.R1.eth[0].mac.queue queueingTime:vector ETV
attr interpolationmode none
attr source queueingTime(packetPopped)
attr title "queueing times, vector"
attr unit s
vector 246 NetworkWithShapingAndPolicing.R1.eth[0].mac.queue.scheduler packetPopped:vector(packetBytes) ETV
attr interpolationmode none
attr title "packets popped, vector(packetBytes)"
vector 247 NetworkWithShapingAndPolicing.R1.eth[0].mac.queue packetPopped:vector(packetBytes) ETV
attr interpolationmode none
attr source localSignal(packetPopped)
attr title "packets popped, vector(packetBytes)"
vector 248 NetworkWithShapingAndPolicing.R1.eth[0].mac txPk:vector(packetBytes) ETV
attr interpolationmode none
attr source packetSentToLower
attr title "packets transmitted, vector(packetBytes)"
vector 249 NetworkWithShapingAndPolicing.H1.eth[0].mac rxPkOk:vector(packetBytes) ETV
attr interpolationmode none
attr source rxPkOk
attr title "packets received OK, vector(packetBytes)"
vector 250 NetworkWithShapingAndPolicing.H1.eth[0].mac passedUpPk:vector(packetBytes) ETV
attr interpolationmode none
attr source packetSentToUpper
attr title "packets passed to higher layer, vector(packetBytes)"
vector 251 NetworkWithShapingAndPolicing.H1.eth[0].encap decapPk:vector(packetBytes) ETV
attr interpolationmode none
attr source decapPk
attr title "packets decapsulated, vector(packetBytes)"
vector 252 NetworkWithShapingAndPolicing.R4.ppp[1].ppp rxPkOk:vector(packetBytes) ETV
attr interpolationmode none
attr source rxPkOk
attr title "packets received OK, vector(packetBytes)"
vector 253 NetworkWithShapingAndPolicing.R4.ppp[1].ppp passedUpPk:vector(packetBytes) ETV
attr interpolationmode none
attr source packetSentToUpper
attr title "packets passed to higher layer, vector(packetBytes)"
vector 254 NetworkWithShapingAndPolicing.R15.ppp[0].ppp rcvdPkFromHl:vector(packetBytes) ETV
attr interpolationmode none
attr source packetReceivedFromUpper
attr title "packets received from higher layer, vector(packetBytes)"
vector 255 NetworkWithShapingAndPolicing.R15.ppp[0].ppp.queue packetPushed:vector(packetBytes) ETV
attr interpolationmode none
attr title "packet pushed, vector(packetBytes)"
vector 256 NetworkWithShapingAndPolicing.R15.ppp[0].ppp.queue queueLength:vector ETV
attr interpolationmode sample-hold
attr source "count(packetPushed) - count(packetPopped) - count(packetRemoved) - count(packetDropped)"
attr title "queue length, vector"
vector 257 NetworkWithShapingAndPolicing.R15.ppp[0].ppp.queue packetPopped:vector(packetBytes) ETV
attr interpolationmode none
attr title "packet popped, vector(packetBytes)"
vector 258 NetworkWithShapingAndPolicing.R15.ppp[0].ppp.queue queueingTime:vector ETV
attr interpolationmode none
attr source queueingTime(packetPopped)
attr title "queueing times, vector"
attr unit s
vector 259 NetworkWithShapingAndPolicing.R15.ppp[0].ppp txPk:vector(packetBytes) ETV
attr interpolationmode none
attr source packetSentToLower
attr title "packets transmitted, vector(packetBytes)"
vector 260 NetworkWithShapingAndPolicing.R1.ppp[1].ppp rcvdPkFromHl:vector(packetBytes) ETV
attr interpolationmode none
attr source packetReceivedFromUpper
attr title "packets received from higher layer, vector(packetBytes)"
vector 261 NetworkWithShapingAndPolicing.R1.ppp[1].ppp.queue packetPushed:vector(packetBytes) ETV
attr interpolationmode none
attr title "packet pushed, vector(packetBytes)"
vector 262 NetworkWithShapingAndPolicing.R1.ppp[1].ppp.queue queueLength:vector ETV
attr interpolationmode sample-hold
attr source "count(packetPushed) - count(packetPopped) - count(packetRemoved) - count(packetDropped)"
attr title "queue length, vector"
vector 263 NetworkWithShapingAndPolicing.R1.ppp[1].ppp.queue packetPopped:vector(packetBytes) ETV
attr interpolationmode none
attr title "packet popped, vector(packetBytes)"
vector 264 NetworkWithShapingAndPolicing.R1.ppp[1].ppp.queue queueingTime:vector ETV
attr interpolationmode none
attr source queueingTime(packetPopped)
attr title "queueing times, vector"
attr unit s
vector 265 NetworkWithShapingAndPolicing.R1.ppp[1].ppp txPk:vector(packetBytes) ETV
attr interpolationmode none
attr source packetSentToLower
attr title "packets transmitted, vector(packetBytes)"
vector 266 NetworkWithShapingAndPolicing.R8.ppp[1].ppp rcvdPkFromHl:vector(packetBytes) ETV
attr interpolationmode none
attr source packetReceivedFromUpper
attr title "packets received from higher layer, vector(packetBytes)"
vector 267 NetworkWithShapingAndPolicing.R8.ppp[1].ppp.queue packetPushed:vector(packetBytes) ETV
attr interpolationmode none
attr title "packet pushed, vector(packetBytes)"
vector 268 NetworkWithShapingAndPolicing.R8.ppp[1].ppp.queue queueLength:vector ETV
attr interpolationmode sample-hold
attr source "count(packetPushed) - count(packetPopped) - count(packetRemoved) - count(packetDropped)"
attr title "queue length, vector"
vector 269 NetworkWithShapingAndPolicing.R8.ppp[1].ppp.queue packetPopped:vector(packetBytes) ETV
attr interpolationmode none
attr title "packet popped, vector(packetBytes)"
vector 270 NetworkWithShapingAndPolicing.R8.ppp[1].ppp.queue queueingTime:vector ETV
attr interpolationmode none
attr source queueingTime(packetPopped)
attr title "queueing times, vector"
attr unit s
vector 271 NetworkWithShapingAndPolicing.R8.ppp[1].ppp txPk:vector(packetBytes) ETV
attr interpolationmode none
attr source packetSentToLower
attr title "packets transmitted, vector(packetBytes)"
vector 272 NetworkWithShapingAndPolicing.R15.ppp[0].ppp rxPkOk:vector(packetBytes) ETV
attr interpolationmode none
attr source rxPkOk
attr title "packets received OK, vector(packetBytes)"
vector 273 NetworkWithShapingAndPolicing.R15.ppp[0].ppp passedUpPk:vector(packetBytes) ETV
attr interpolationmode none
attr source packetSentToUpper
attr title "packets passed to higher layer, vector(packetBytes)"
vector 274 NetworkWithShapingAndPolicing.R1.ppp[0].ppp rcvdPkFromHl:vector(packetBytes) ETV
attr interpolationmode none
attr source packetReceivedFromUpper
attr title "packets received from higher layer, vector(packetBytes)"
vector 275 NetworkWithShapingAndPolicing.R1.ppp[0].ppp.queue packetPushed:vector(packetBytes) ETV
attr interpolationmode none
attr title "packet pushed, vector(packetBytes)"
vector 276 NetworkWithShapingAndPolicing.R1.ppp[0].ppp.queue queueLength:vector ETV
attr interpolationmode sample-hold
attr source "count(packetPushed) - count(packetPopped) - count(packetRemoved) - count(packetDropped)"
attr title "queue length, vector"
vector 277 NetworkWithShapingAndPolicing.R1.ppp[0].ppp.queue packetPopped:vector(packetBytes) ETV
attr interpolationmode none
attr title "packet popped, vector(packetBytes)"
vector 278 NetworkWithShapingAndPolicing.R1.ppp[0].ppp.queue queueingTime:vector ETV
attr interpolationmode none
attr source queueingTime(packetPopped)
attr title "queueing times, vector"
attr unit s
vector 279 NetworkWithShapingAndPolicing.R1.ppp[0].ppp txPk:vector(packetBytes) ETV
attr interpolationmode none
attr source packetSentToLower
attr title "packets transmitted, vector(packetBytes)"
vector 280 NetworkWithShapingAndPolicing.R3.ppp[0].ppp rxPkOk:vector(packetBytes) ETV
attr interpolationmode none
attr source rxPkOk
attr title "packets received OK, vector(packetBytes)"
vector 281 NetworkWithShapingAndPolicing.R3.ppp[0].ppp passedUpPk:vector(packetBytes) ETV
attr interpolationmode none
attr source packetSentToUpper
attr title "packets passed to higher layer, vector(packetBytes)"
vector 282 NetworkWithShapingAndPolicing.R10.ppp[0].ppp rcvdPkFromHl:vector(packetBytes) ETV
attr interpolationmode none
attr source packetReceivedFromUpper
attr title "packets received from higher layer, vector(packetBytes)"
vector 283 NetworkWithShapingAndPolicing.R10.ppp[0].ppp.queue packetPushed:vector(packetBytes) ETV
attr interpolationmode none
attr title "packet pushed, vector(packetBytes)"
vector 284 NetworkWithShapingAndPolicing.R10.ppp[0].ppp.queue queueLength:vector ETV
attr interpolationmode sample-hold
attr source "count(packetPushed) - count(packetPopped) - count(packetRemoved) - count(packetDropped)"
attr title "queue length, vector"
vector 285 NetworkWithShapingAndPolicing.R10.ppp[0].ppp.queue packetPopped:vector(packetBytes) ETV
attr interpolationmode none
attr title "packet popped, vector(packetBytes)"
vector 286 NetworkWithShapingAndPolicing.R10.ppp[0].ppp.queue queueingTime:vector ETV
attr interpolationmode none
attr source queueingTime(packetPopped)
attr title "queueing times, vector"
attr unit s
vector 287 NetworkWithShapingAndPolicing.R10.ppp[0].ppp txPk:vector(packetBytes) ETV
attr interpolationmode none
attr source packetSentToLower
attr title "packets transmitted, vector(packetBytes)"
vector 288 NetworkWithShapingAndPolicing.R1.ppp[0].ppp rxPkOk:vector(packetBytes) ETV
attr interpolationmode none
attr source rxPkOk
attr title "packets received OK, vector(packetBytes)"
vector 289 NetworkWithShapingAndPolicing.R1.ppp[0].ppp passedUpPk:vector(packetBytes) ETV
attr interpolationmode none
attr source packetSentToUpper
attr title "packets passed to higher layer, vector(packetBytes)"
vector 290 NetworkWithShapingAndPolicing.R11.ppp[0].ppp rcvdPkFromHl:vector(packetBytes) ETV
attr interpolationmode none
attr source packetReceivedFromUpper
attr title "packets received from higher layer, vector(packetBytes)"
vector 291 NetworkWithShapingAndPolicing.R11.ppp[0].ppp.queue packetPushed:vector(packetBytes) ETV
attr interpolationmode none
attr title "packet pushed, vector(packetBytes)"
vector 292 NetworkWithShapingAndPolicing.R11.ppp[0].ppp.queue queueLength:vector ETV
attr interpolationmode sample-hold
attr source "count(packetPushed) - count(packetPopped) - count(packetRemoved) - count(packetDropped)"
attr title "queue length, vector"
vector 293 NetworkWithShapingAndPolicing.R11.ppp[0].ppp.queue packetPopped:vector(packetBytes) ETV
attr interpolationmode none
attr title "packet popped, vector(packetBytes)"
vector 294 NetworkWithShapingAndPolicing.R11.ppp[0].ppp.queue queueingTime:vector ETV
attr interpolationmode none
attr source queueingTime(packetPopped)
attr title "queueing times, vector"
attr unit s
vector 295 NetworkWithShapingAndPolicing.R11.ppp[0].ppp txPk:vector(packetBytes) ETV
attr interpolationmode none
attr source packetSentToLower
attr title "packets transmitted, vector(packetBytes)"
vector 296 NetworkWithShapingAndPolicing.R6.ppp[0].ppp rcvdPkFromHl:vector(packetBytes) ETV
attr interpolationmode none
attr source packetReceivedFromUpper
attr title "packets received from higher layer, vector(packetBytes)"
vector 297 NetworkWithShapingAndPolicing.R6.ppp[0].ppp.queue packetPushed:vector(packetBytes) ETV
attr interpolationmode none
attr title "packet pushed, vector(packetBytes)"
vector 298 NetworkWithShapingAndPolicing.R6.ppp[0].ppp.queue queueLength:vector ETV
attr interpolationmode sample-hold
attr source "count(packetPushed) - count(packetPopped) - count(packetRemoved) - count(packetDropped)"
attr title "queue length, vector"
vector 299 NetworkWithShapingAndPolicing.R6.ppp[0].ppp.queue packetPopped:vector(packetBytes) ETV
attr interpolationmode none
attr title "packet popped, vector(packetBytes)"
vector 300 NetworkWithShapingAndPolicing.R6.ppp[0].ppp.queue queueingTime:vector ETV
attr interpolationmode none
attr source queueingTime(packetPopped)
attr title "queueing times, vector"
attr unit s
vector 301 NetworkWithShapingAndPolicing.R6.ppp[0].ppp txPk:vector(packetBytes) ETV
attr interpolationmode none
attr source packetSentToLower
attr title "packets transmitted, vector(packetBytes)"
vector 302 NetworkWithShapingAndPolicing.R11.ppp[0].ppp rxPkOk:vector(packetBytes) ETV
attr interpolationmode none
attr source rxPkOk
attr title "packets received OK, vector(packetBytes)"
vector 303 NetworkWithShapingAndPolicing.R11.ppp[0].ppp passedUpPk:vector(packetBytes) ETV
attr interpolationmode none
attr source packetSentToUpper
attr title "packets passed to higher layer, vector(packetBytes)"
vector 304 NetworkWithShapingAndPolicing.R1.ppp[1].ppp rxPkOk:vector(packetBytes) ETV
attr interpolationmode none
attr source rxPkOk
attr title "packets received OK, vector(packetBytes)"
vector 305 NetworkWithShapingAndPolicing.R1.ppp[1].ppp passedUpPk:vector(packetBytes) ETV
attr interpolationmode none
attr source packetSentToUpper
attr title "packets passed to higher layer, vector(packetBytes)"
vector 306 NetworkWithShapingAndPolicing.R11.ppp[1].ppp rcvdPkFromHl:vector(packetBytes) ETV
attr interpolationmode none
attr source packetReceivedFromUpper
attr title "packets received from higher layer, vector(packetBytes)"
vector 307 NetworkWithShapingAndPolicing.R11.ppp[1].ppp.queue packetPushed:vector(packetBytes) ETV
attr interpolationmode none
attr title "packet pushed, vector(packetBytes)"
vector 308 NetworkWithShapingAndPolicing.R11.ppp[1].ppp.queue queueLength:vector ETV
attr interpolationmode sample-hold
attr source "count(packetPushed) - count(packetPopped) - count(packetRemoved) - count(packetDropped)"
attr title "queue length, vector"
vector 309 NetworkWithShapingAndPolicing.R11.ppp[1].ppp.queue packetPopped:vector(packetBytes) ETV
attr interpolationmode none
attr title "packet popped, vector(packetBytes)"
vector 310 NetworkWithShapingAndPolicing.R11.ppp[1].ppp.queue queueingTime:vector ETV
attr interpolationmode none
attr source queueingTime(packetPopped)
attr title "queueing times, vector"
attr unit s
vector 311 NetworkWithShapingAndPolicing.R11.ppp[1].ppp txPk:vector(packetBytes) ETV
attr interpolationmode none
attr source packetSentToLower
attr title "packets transmitted, vector(packetBytes)"
vector 312 NetworkWithShapingAndPolicing.R6.ppp[0].ppp rxPkOk:vector(packetBytes) ETV
attr interpolationmode none
attr source rxPkOk
attr title "packets received OK, vector(packetBytes)"
vector 313 NetworkWithShapingAndPolicing.R6.ppp[0].ppp passedUpPk:vector(packetBytes) ETV
attr interpolationmode none
attr source packetSentToUpper
attr title "packets passed to higher layer, vector(packetBytes)"
vector 314 NetworkWithShapingAndPolicing.R8.ppp[0].ppp rxPkOk:vector(packetBytes) ETV
attr interpolationmode none
attr source rxPkOk
attr title "packets received OK, vector(packetBytes)"
vector 315 NetworkWithShapingAndPolicing.R8.ppp[0].ppp passedUpPk:vector(packetBytes) ETV
attr interpolationmode none
attr source packetSentToUpper
attr title "packets passed to higher layer, vector(packetBytes)"
vector 316 NetworkWithShapingAndPolicing.R7.ppp[2].ppp rcvdPkFromHl:vector(packetBytes) ETV
attr interpolationmode none
attr source packetReceivedFromUpper
attr title "packets received from higher layer, vector(packetBytes)"
vector 317 NetworkWithShapingAndPolicing.R7.ppp[2].ppp.queue packetPushed:vector(packetBytes) ETV
attr interpolationmode none
attr title "packet pushed, vector(packetBytes)"
vector 318 NetworkWithShapingAndPolicing.R7.ppp[2].ppp.queue queueLength:vector ETV
attr interpolationmode sample-hold
attr source "count(packetPushed) - count(packetPopped) - count(packetRemoved) - count(packetDropped)"
attr title "queue length, vector"
vector 319 NetworkWithShapingAndPolicing.R7.ppp[2].ppp.queue packetPopped:vector(packetBytes) ETV
attr interpolationmode none
attr title "packet popped, vector(packetBytes)"
vector 320 NetworkWithShapingAndPolicing.R7.ppp[2].ppp.queue queueingTime:vector ETV
attr interpolationmode none
attr source queueingTime(packetPopped)
attr title "queueing times, vector"
attr unit s
vector 321 NetworkWithShapingAndPolicing.R7.ppp[2].ppp txPk:vector(packetBytes) ETV
attr interpolationmode none
attr source packetSentToLower
attr title "packets transmitted, vector(packetBytes)"
vector 322 NetworkWithShapingAndPolicing.R15.eth[0].encap encapPk:vector(packetBytes) ETV
attr interpolationmode none
attr source encapPk
attr title "packets encapsulated, vector(packetBytes)"
vector 323 NetworkWithShapingAndPolicing.R15.eth[0].mac packetReceivedFromUpper:vector(packetBytes) ETV
attr interpolationmode none
attr source packetReceivedFromUpper
attr title "packet bytes from higher layer, vector(packetBytes)"
vector 324 NetworkWithShapingAndPolicing.R15.eth[0].mac.queue packetPushed:vector(packetBytes) ETV
attr interpolationmode none
attr source localSignal(packetPushed)
attr title "packets pushed, vector(packetBytes)"
vector 325 NetworkWithShapingAndPolicing.R15.eth[0].mac.queue queueLength:vector ETV
attr interpolationmode sample-hold
attr source "count(localSignal(packetPushed)) - count(localSignal(packetPopped)) - count(localSignal(packetRemoved)) - count(packetDropped)"
attr title "queue length, vector"
vector 326 NetworkWithShapingAndPolicing.R15.eth[0].mac.queue.classifier packetPushed:vector(packetBytes) ETV
attr interpolationmode none
attr title "packets pushed, vector(packetBytes)"
vector 327 NetworkWithShapingAndPolicing.R15.eth[0].mac.queue.dataQueue packetPushed:vector(packetBytes) ETV
attr interpolationmode none
attr title "packet pushed, vector(packetBytes)"
vector 328 NetworkWithShapingAndPolicing.R15.eth[0].mac.queue.dataQueue queueLength:vector ETV
attr interpolationmode sample-hold
attr source "count(packetPushed) - count(packetPopped) - count(packetRemoved) - count(packetDropped)"
attr title "queue length, vector"
vector 329 NetworkWithShapingAndPolicing.R15.eth[0].mac.queue.dataQueue packetPopped:vector(packetBytes) ETV
attr interpolationmode none
attr title "packet popped, vector(packetBytes)"
vector 330 NetworkWithShapingAndPolicing.R15.eth[0].mac.queue.dataQueue queueingTime:vector ETV
attr interpolationmode none
attr source queueingTime(packetPopped)
attr title "queueing times, vector"
attr unit s
vector 331 NetworkWithShapingAndPolicing.R15.eth[0].mac.queue queueingTime:vector ETV
attr interpolationmode none
attr source queueingTime(packetPopped)
attr title "queueing times, vector"
attr unit s
vector 332 NetworkWithShapingAndPolicing.R15.eth[0].mac.queue.scheduler packetPopped:vector(packetBytes) ETV
attr interpolationmode none
attr title "packets popped, vector(packetBytes)"
vector 333 NetworkWithShapingAndPolicing.R15.eth[0].mac.queue packetPopped:vector(packetBytes) ETV
attr interpolationmode none
attr source localSignal(packetPopped)
attr title "packets popped, vector(packetBytes)"
vector 334 NetworkWithShapingAndPolicing.R15.eth[0].mac txPk:vector(packetBytes) ETV
attr interpolationmode none
attr source packetSentToLower
attr title "packets transmitted, vector(packetBytes)"
vector 335 NetworkWithShapingAndPolicing.H2.eth[0].mac rxPkOk:vector(packetBytes) ETV
attr interpolationmode none
attr source rxPkOk
attr title "packets received OK, vector(packetBytes)"
vector 336 NetworkWithShapingAndPolicing.H2.eth[0].mac passedUpPk:vector(packetBytes) ETV
attr interpolationmode none
attr source packetSentToUpper
attr title "packets passed to higher layer, vector(packetBytes)"
vector 337 NetworkWithShapingAndPolicing.H2.eth[0].encap decapPk:vector(packetBytes) ETV
attr interpolationmode none
attr source decapPk
attr title "packets decapsulated, vector(packetBytes)"
vector 338 NetworkWithShapingAndPolicing.R3.ppp[0].ppp rcvdPkFromHl:vector(packetBytes) ETV
attr interpolationmode none
attr source packetReceivedFromUpper
attr title "packets received from higher layer, vector(packetBytes)"
vector 339 NetworkWithShapingAndPolicing.R3.ppp[0].ppp.queue packetPushed:vector(packetBytes) ETV
attr interpolationmode none
attr title "packet pushed, vector(packetBytes)"
vector 340 NetworkWithShapingAndPolicing.R3.ppp[0].ppp.queue queueLength:vector ETV
attr interpolationmode sample-hold
attr source "count(packetPushed) - count(packetPopped) - count(packetRemoved) - count(packetDropped)"
attr title "queue length, vector"
vector 341 NetworkWithShapingAndPolicing.R3.ppp[0].ppp.queue packetPopped:vector(packetBytes) ETV
attr interpolationmode none
attr title "packet popped, vector(packetBytes)"
vector 342 NetworkWithShapingAndPolicing.R3.ppp[0].ppp.queue queueingTime:vector ETV
attr interpolationmode none
attr source queueingTime(packetPopped)
attr title "queueing times, vector"
attr unit s
vector 343 NetworkWithShapingAndPolicing.R3.ppp[0].ppp txPk:vector(packetBytes) ETV
attr interpolationmode none
attr source packetSentToLower
attr title "packets transmitted, vector(packetBytes)"
vector 344 NetworkWithShapingAndPolicing.R7.ppp[0].ppp rxPkOk:vector(packetBytes) ETV
attr interpolationmode none
attr source rxPkOk
attr title "packets received OK, vector(packetBytes)"
vector 345 NetworkWithShapingAndPolicing.R7.ppp[0].ppp passedUpPk:vector(packetBytes) ETV
attr interpolationmode none
attr source packetSentToUpper
attr title "packets passed to higher layer, vector(packetBytes)"
vector 346 NetworkWithShapingAndPolicing.R12.ppp[0].ppp rxPkOk:vector(packetBytes) ETV
attr interpolationmode none
attr source rxPkOk
attr title "packets received OK, vector(packetBytes)"
vector 347 NetworkWithShapingAndPolicing.R12.ppp[0].ppp passedUpPk:vector(packetBytes) ETV
attr interpolationmode none
attr source packetSentToUpper
attr title "packets passed to higher layer, vector(packetBytes)"
vector 348 NetworkWithShapingAndPolicing.R12.ppp[1].ppp rxPkOk:vector(packetBytes) ETV
attr interpolationmode none
attr source rxPkOk
attr title "packets received OK, vector(packetBytes)"
vector 349 NetworkWithShapingAndPolicing.R12.ppp[1].ppp passedUpPk:vector(packetBytes) ETV
attr interpolationmode none
attr source packetSentToUpper
attr title "packets passed to higher layer, vector(packetBytes)"
vector 350 NetworkWithShapingAndPolicing.R5.ppp[0].ppp rxPkOk:vector(packetBytes) ETV
attr interpolationmode none
attr source rxPkOk
attr title "packets received OK, vector(packetBytes)"
vector 351 NetworkWithShapingAndPolicing.R5.ppp[0].ppp passedUpPk:vector(packetBytes) ETV
attr interpolationmode none
attr source packetSentToUpper
attr title "packets passed to higher layer, vector(packetBytes)"
vector 352 NetworkWithShapingAndPolicing.R14.ppp[1].ppp rxPkOk:vector(packetBytes) ETV
attr interpolationmode none
attr source rxPkOk
attr title "packets received OK, vector(packetBytes)"
vector 353 NetworkWithShapingAndPolicing.R14.ppp[1].ppp passedUpPk:vector(packetBytes) ETV
attr interpolationmode none
attr source packetSentToUpper
attr title "packets passed to higher layer, vector(packetBytes)"
vector 354 NetworkWithShapingAndPolicing.R14.ppp[0].ppp rxPkOk:vector(packetBytes) ETV
attr interpolationmode none
attr source rxPkOk
attr title "packets received OK, vector(packetBytes)"
vector 355 NetworkWithShapingAndPolicing.R14.ppp[0].ppp passedUpPk:vector(packetBytes) ETV
attr interpolationmode none
attr source packetSentToUpper
attr title "packets passed to higher layer, vector(packetBytes)"
vector 356 NetworkWithShapingAndPolicing.R8.ppp[1].ppp rxPkOk:vector(packetBytes) ETV
attr interpolationmode none
attr source rxPkOk
attr title "packets received OK, vector(packetBytes)"
vector 357 NetworkWithShapingAndPolicing.R8.ppp[1].ppp passedUpPk:vector(packetBytes) ETV
attr interpolationmode none
attr source packetSentToUpper
attr title "packets passed to higher layer, vector(packetBytes)"
vector 358 NetworkWithShapingAndPolicing.R13.ppp[0].ppp rxPkOk:vector(packetBytes) ETV
attr interpolationmode none
attr source rxPkOk
attr title "packets received OK, vector(packetBytes)"
vector 359 NetworkWithShapingAndPolicing.R13.ppp[0].ppp passedUpPk:vector(packetBytes) ETV
attr interpolationmode none
attr source packetSentToUpper
attr title "packets passed to higher layer, vector(packetBytes)"
vector 360 NetworkWithShapingAndPolicing.R2.ppp[0].ppp rxPkOk:vector(packetBytes) ETV
attr interpolationmode none
attr source rxPkOk
attr title "packets received OK, vector(packetBytes)"
vector 361 NetworkWithShapingAndPolicing.R2.ppp[0].ppp passedUpPk:vector(packetBytes) ETV
attr interpolationmode none
attr source packetSentToUpper
attr title "packets passed to higher layer, vector(packetBytes)"
vector 362 NetworkWithShapingAndPolicing.R4.ppp[0].ppp rxPkOk:vector(packetBytes) ETV
attr interpolationmode none
attr source rxPkOk
attr title "packets received OK, vector(packetBytes)"
vector 363 NetworkWithShapingAndPolicing.R4.ppp[0].ppp passedUpPk:vector(packetBytes) ETV
attr interpolationmode none
attr source packetSentToUpper
attr title "packets passed to higher layer, vector(packetBytes)"
vector 364 NetworkWithShapingAndPolicing.R13.ppp[1].ppp rxPkOk:vector(packetBytes) ETV
attr interpolationmode none
attr source rxPkOk
attr title "packets received OK, vector(packetBytes)"
vector 365 NetworkWithShapingAndPolicing.R13.ppp[1].ppp passedUpPk:vector(packetBytes) ETV
attr interpolationmode none
attr source packetSentToUpper
attr title "packets passed to higher layer, vector(packetBytes)"
vector 366 NetworkWithShapingAndPolicing.R3.ppp[1].ppp rxPkOk:vector(packetBytes) ETV
attr interpolationmode none
attr source rxPkOk
attr title "packets received OK, vector(packetBytes)"
vector 367 NetworkWithShapingAndPolicing.R3.ppp[1].ppp passedUpPk:vector(packetBytes) ETV
attr interpolationmode none
attr source packetSentToUpper
attr title "packets passed to higher layer, vector(packetBytes)"
vector 368 NetworkWithShapingAndPolicing.R11.ppp[1].ppp rxPkOk:vector(packetBytes) ETV
attr interpolationmode none
attr source rxPkOk
attr title "packets received OK, vector(packetBytes)"
vector 369 NetworkWithShapingAndPolicing.R11.ppp[1].ppp passedUpPk:vector(packetBytes) ETV
attr interpolationmode none
attr source packetSentToUpper
attr title "packets passed to higher layer, vector(packetBytes)"
vector 370 NetworkWithShapingAndPolicing.R7.ppp[1].ppp rxPkOk:vector(packetBytes) ETV
attr interpolationmode none
attr source rxPkOk
attr title "packets received OK, vector(packetBytes)"
vector 371 NetworkWithShapingAndPolicing.R7.ppp[1].ppp passedUpPk:vector(packetBytes) ETV
attr interpolationmode none
attr source packetSentToUpper
attr title "packets passed to higher layer, vector(packetBytes)"
vector 372 NetworkWithShapingAndPolicing.R7.ppp[2].ppp rxPkOk:vector(packetBytes) ETV
attr interpolationmode none
attr source rxPkOk
attr title "packets received OK, vector(packetBytes)"
vector 373 NetworkWithShapingAndPolicing.R7.ppp[2].ppp passedUpPk:vector(packetBytes) ETV
attr interpolationmode none
attr source packetSentToUpper
attr title "packets passed to higher layer, vector(packetBytes)"
vector 374 NetworkWithShapingAndPolicing.R15.ppp[2].ppp rxPkOk:vector(packetBytes) ETV
attr interpolationmode none
attr source rxPkOk
attr title "packets received OK, vector(packetBytes)"
vector 375 NetworkWithShapingAndPolicing.R15.ppp[2].ppp passedUpPk:vector(packetBytes) ETV
attr interpolationmode none
attr source packetSentToUpper
attr title "packets passed to higher layer, vector(packetBytes)"
vector 376 NetworkWithShapingAndPolicing.R2.ppp[2].ppp rxPkOk:vector(packetBytes) ETV
attr interpolationmode none
attr source rxPkOk
attr title "packets received OK, vector(packetBytes)"
vector 377 NetworkWithShapingAndPolicing.R2.ppp[2].ppp passedUpPk:vector(packetBytes) ETV
attr interpolationmode none
attr source packetSentToUpper
attr title "packets passed to higher layer, vector(packetBytes)"
vector 378 NetworkWithShapingAndPolicing.R8.ppp[2].ppp rxPkOk:vector(packetBytes) ETV
attr interpolationmode none
attr source rxPkOk
attr title "packets received OK, vector(packetBytes)"
vector 379 NetworkWithShapingAndPolicing.R8.ppp[2].ppp passedUpPk:vector(packetBytes) ETV
attr interpolationmode none
attr source packetSentToUpper
attr title "packets passed to higher layer, vector(packetBytes)"
vector 380 NetworkWithShapingAndPolicing.R9.ppp[0].ppp rxPkOk:vector(packetBytes) ETV
attr interpolationmode none
attr source rxPkOk
attr title "packets received OK, vector(packetBytes)"
vector 381 NetworkWithShapingAndPolicing.R9.ppp[0].ppp passedUpPk:vector(packetBytes) ETV
attr interpolationmode none
attr source packetSentToUpper
attr title "packets passed to higher layer, vector(packetBytes)"
vector 382 NetworkWithShapingAndPolicing.R9.ppp[0].ingressTC.mfClassifier pkClass:vector ETV
attr interpolationmode none
attr source pkClass
attr title "packet class, vector"
vector 383 NetworkWithShapingAndPolicing.R9.ppp[0].ingressTC.beMarker packetMarked:vector(packetBytes) ETV
attr interpolationmode none
attr source packetMarked
attr title "packets marked, vector(packetBytes)"
vector 384 NetworkWithShapingAndPolicing.R10.ppp[0].ppp rxPkOk:vector(packetBytes) ETV
attr interpolationmode none
attr source rxPkOk
attr title "packets received OK, vector(packetBytes)"
vector 385 NetworkWithShapingAndPolicing.R10.ppp[0].ppp passedUpPk:vector(packetBytes) ETV
attr interpolationmode none
attr source packetSentToUpper
attr title "packets passed to higher layer, vector(packetBytes)"
vector 386 NetworkWithShapingAndPolicing.R2.ppp[1].ppp rxPkOk:vector(packetBytes) ETV
attr interpolationmode none
attr source rxPkOk
attr title "packets received OK, vector(packetBytes)"
vector 387 NetworkWithShapingAndPolicing.R2.ppp[1].ppp passedUpPk:vector(packetBytes) ETV
attr interpolationmode none
attr source packetSentToUpper
attr title "packets passed to higher layer, vector(packetBytes)"
vector 388 NetworkWithShapingAndPolicing.R10.ppp[1].ppp rxPkOk:vector(packetBytes) ETV
attr interpolationmode none
attr source rxPkOk
attr title "packets received OK, vector(packetBytes)"
vector 389 NetworkWithShapingAndPolicing.R10.ppp[1].ppp passedUpPk:vector(packetBytes) ETV
attr interpolationmode none
attr source packetSentToUpper
attr title "packets passed to higher layer, vector(packetBytes)"
vector 390 NetworkWithShapingAndPolicing.R9.ppp[1].ppp rxPkOk:vector(packetBytes) ETV
attr interpolationmode none
attr source rxPkOk
attr title "packets received OK, vector(packetBytes)"
vector 391 NetworkWithShapingAndPolicing.R9.ppp[1].ppp passedUpPk:vector(packetBytes) ETV
[...]
246	69846931 320 894833 933632 1160.107198867093 1240.107198867093 10 64 82 802 64612
247	69847251 320 894833 933632 1160.107198867093 1240.107198867093 10 64 82 802 64612
248	69847571 320 894834 933633 1160.107206067093 1240.107206067093 10 64 82 802 64612
249	69847891 320 894835 933634 1160.107206117093 1240.107206117093 10 64 82 802 64612
250	69848211 320 894835 933634 1160.107206117093 1240.107206117093 10 64 82 802 64612
251	69848531 320 894836 933635 1160.107206117093 1240.107206117093 10 46 64 622 38980
252	69848851 616 894850 933649 1160.10857770417 1240.10857770417 20 71 151 1976 214796
253	69849467 616 894850 933649 1160.10857770417 1240.10857770417 20 64 144 1836 188112
254	69850083 781 894843 933642 1160.108173347561 1240.108173347561 25 64 144 2136 207360
255	69850864 781 894843 933642 1160.108173347561 1240.108173347561 25 64 144 2136 207360
256	69851645 1498 894843 933642 1160.108173347561 1240.108173347561 50 0 1 25 25
257	69853143 781 894843 933642 1160.108173347561 1240.108173347561 25 64 144 2136 207360
258	69853924 772 894843 933642 1160.108173347561 1240.108173347561 25 0 0.032 0.056715638828 0.0013680139019381
259	69854696 781 894843 933642 1160.108173347561 1240.108173347561 25 71 151 2311 238489
260	69855477 793 894846 933645 1160.10852570675 1240.10852570675 26 48 352 2484 329808
261	69856270 793 894846 933645 1160.10852570675 1240.10852570675 26 48 352 2484 329808
262	69857063 4553 893572 933645 1158.505638986389 1240.10852570675 147 0 94 4965 313321
263	69861616 3929 893572 933645 1158.505638986389 1240.10852570675 121 48 528 44444 20844688
264	69865545 4563 893572 933645 1158.505638986389 1240.10852570675 121 0 12.11525 1117.7130734764 12737.942913059
265	69870108 3929 893572 933645 1158.505638986389 1240.10852570675 121 55 535 45291 21472833
266	69874037 759 894849 933648 1160.108559950379 1240.108559950379 24 48 352 2244 306256
267	69874796 759 894849 933648 1160.108559950379 1240.108559950379 24 48 352 2244 306256
268	69875555 1455 894849 933648 1160.108559950379 1240.108559950379 48 0 1 24 24
269	69877010 760 894849 933648 1160.108559950379 1240.108559950379 24 48 352 2244 306256
270	69877770 741 894849 933648 1160.108559950379 1240.108559950379 24 0 0.064236320701 0.064236320701 0.0041263048972017
271	69878511 760 894849 933648 1160.108559950379 1240.108559950379 24 55 359 2412 338848
272	69879271 809 894863 933659 1160.109716053439 1240.109716053439 25 71 151 2423 260953
273	69880080 809 894863 933659 1160.109716053439 1240.109716053439 25 64 144 2248 228256
274	69880889 59827 893527 933654 1158.453557768763 1240.108847807824 1818 48 528 700850 319904772
275	69940716 59827 893527 933654 1158.453557768763 1240.108847807824 1818 48 528 700850 319904772
276	70000543 120433 893527 933654 1158.453557768763 1240.108847807824 3677 0 101 356216 35329294
277	70120976 16652 893630 933654 1158.586638986389 1240.108847807824 506 48 528 206618 98320356
278	70137628 19784 893630 933654 1158.586638986389 1240.108847807824 506 0 11.7655 4589.6301547833 47412.373004458
279	70157412 16652 893630 933654 1158.586638986389 1240.108847807824 506 55 535 210160 101237802
280	70174064 616 894866 933662 1160.109978422814 1240.109978422814 19 75 151 2029 235123
281	70174680 616 894866 933662 1160.109978422814 1240.109978422814 19 68 144 1896 207648
282	70175296 440 894862 933658 1160.109555914097 1240.109555914097 17 64 84 1144 77344
283	70175736 440 894862 933658 1160.109555914097 1240.109555914097 17 64 84 1144 77344
284	70176176 846 894862 933658 1160.109555914097 1240.109555914097 34 0 1 17 17
285	70177022 440 894862 933658 1160.109555914097 1240.109555914097 17 64 84 1144 77344
286	70177462 423 894862 933658 1160.109555914097 1240.109555914097 17 0 0 0 0
287	70177885 440 894862 933658 1160.109555914097 1240.109555914097 17 71 91 1263 94193
288	70178325 928 894869 933665 1160.111012027451 1240.111012027451 29 55 359 2851 381309
289	70179253 928 894869 933665 1160.111012027451 1240.111012027451 29 48 352 2648 342816
290	70180181 585 894874 933670 1160.111032276554 1240.111032276554 18 68 144 1800 199584
291	70180766 585 894874 933670 1160.111032276554 1240.111032276554 18 68 144 1800 199584
292	70181351 1116 894874 933670 1160.111032276554 1240.111032276554 36 0 1 18 18
293	70182467 585 894874 933670 1160.111032276554 1240.111032276554 18 68 144 1800 199584
294	70183052 558 894874 933670 1160.111032276554 1240.111032276554 18 0 0 0 0
295	70183610 585 894874 933670 1160.111032276554 1240.111032276554 18 75 151 1926 225666
296	70184195 551 894879 933675 1160.111736760164 1240.111736760164 20 64 144 1484 119600
297	70184746 551 894879 933675 1160.111736760164 1240.111736760164 20 64 144 1484 119600
298	70185297 1058 894879 933675 1160.111736760164 1240.111736760164 40 0 1 20 20
299	70186355 551 894879 933675 1160.111736760164 1240.111736760164 20 64 144 1484 119600
300	70186906 529 894879 933675 1160.111736760164 1240.111736760164 20 0 0 0 0
301	70187435 551 894879 933675 1160.111736760164 1240.111736760164 20 71 151 1624 141356
302	70187986 488 894892 933676 1160.113223993728 1240.113223993728 17 71 91 1263 94193
303	70188474 488 894892 933676 1160.113223993728 1240.113223993728 17 64 84 1144 77344
304	70188962 698 894895 933679 1160.113260047472 1240.113260047472 23 59 359 2153 290647
305	70189660 698 894895 933679 1160.113260047472 1240.113260047472 23 52 352 1992 261632
306	70190358 440 894900 933684 1160.113836309436 1240.113836309436 17 64 84 1144 77344
307	70190798 440 894900 933684 1160.113836309436 1240.113836309436 17 64 84 1144 77344
308	70191238 846 894900 933684 1160.113836309436 1240.113836309436 34 0 1 17 17
309	70192084 440 894900 933684 1160.113836309436 1240.113836309436 17 64 84 1144 77344
310	70192524 423 894900 933684 1160.113836309436 1240.113836309436 17 0 0 0 0
311	70192947 440 894900 933684 1160.113836309436 1240.113836309436 17 71 91 1263 94193
312	70193387 680 894915 933687 1160.117096980613 1240.117096980613 21 71 151 2171 245205
313	70194067 680 894915 933687 1160.117096980613 1240.117096980613 21 64 144 2024 215840
314	70194747 5385 893605 933690 1158.535888986389 1240.118200692058 164 71 535 71684 35894644
315	70200132 5385 893605 933690 1158.535888986389 1240.118200692058 164 64 528 70536 34899104
316	70205517 715 894923 933695 1160.118226617754 1240.118226617754 23 64 144 1956 183696
317	70206232 715 894923 933695 1160.118226617754 1240.118226617754 23 64 144 1956 183696
318	70206947 1370 894923 933695 1160.118226617754 1240.118226617754 46 0 1 23 23
319	70208317 715 894923 933695 1160.118226617754 1240.118226617754 23 64 144 1956 183696
320	70209032 689 894923 933695 1160.118226617754 1240.118226617754 23 0 0.018 0.018 0.000324
321	70209721 715 894923 933695 1160.118226617754 1240.118226617754 23 71 151 2117 212207
322	70210436 3974 893702 933698 1158.702138986389 1240.11963701581 121 28 528 38220 15700496
323	70214410 3974 893703 933699 1158.702138986389 1240.11963701581 121 46 546 40398 17115620
324	70218384 3974 893703 933699 1158.702138986389 1240.11963701581 121 64 546 40416 17117600
325	70222358 7484 893703 933699 1158.702138986389 1240.11963701581 242 0 1 121 121
326	70229842 3974 893703 933699 1158.702138986389 1240.11963701581 121 64 546 40416 17117600
327	70233816 3974 893703 933699 1158.702138986389 1240.11963701581 121 64 546 40416 17117600
328	70237790 7484 893703 933699 1158.702138986389 1240.11963701581 242 0 1 121 121
329	70245274 3974 893703 933699 1158.702138986389 1240.11963701581 121 64 546 40416 17117600
330	70249248 3742 893703 933699 1158.702138986389 1240.11963701581 121 0 0 0 0
331	70252990 11226 893703 933699 1158.702138986389 1240.11963701581 363 0 0 0 0
332	70264216 3974 893703 933699 1158.702138986389 1240.11963701581 121 64 546 40416 17117600
333	70268190 3974 893703 933699 1158.702138986389 1240.11963701581 121 64 546 40416 17117600
334	70272164 3974 893704 933700 1158.702157066389 1240.11964421581 121 64 546 40416 17117600
335	70276138 3974 893705 933701 1158.702157116389 1240.11964426581 121 64 546 40416 17117600
336	70280112 3974 893705 933701 1158.702157116389 1240.11964426581 121 64 546 40416 17117600
337	70284086 3974 893706 933702 1158.702157116389 1240.11964426581 121 46 528 38238 15701828
338	70288060 440 894935 933707 1160.119763288281 1240.119763288281 17 64 84 1164 80304
339	70288500 440 894935 933707 1160.119763288281 1240.119763288281 17 64 84 1164 80304
340	70288940 846 894935 933707 1160.119763288281 1240.119763288281 34 0 1 17 17
341	70289786 440 894935 933707 1160.119763288281 1240.119763288281 17 64 84 1164 80304
342	70290226 423 894935 933707 1160.119763288281 1240.119763288281 17 0 0 0 0
343	70290649 440 894935 933707 1160.119763288281 1240.119763288281 17 71 91 1283 97433
344	70291089 537 894938 933710 1160.123052620812 1240.123052620812 18 71 151 1538 142362
345	70291626 537 894938 933710 1160.123052620812 1240.123052620812 18 64 144 1412 121712
346	70292163 536 894941 933713 1160.123131343521 1240.123131343521 18 71 139 1446 121698
347	70292699 536 894941 933713 1160.123131343521 1240.123131343521 18 64 132 1320 102336
348	70293235 4280 893675 933720 1158.648388986389 1240.127063445195 130 71 535 40390 16425618
349	70297515 4280 893675 933720 1158.648388986389 1240.127063445195 130 64 528 39480 15866528
350	70301795 16620 893577 933726 1158.509888986389 1240.127494704792 505 71 535 210961 101729833
351	70318415 16620 893577 933726 1158.509888986389 1240.127494704792 505 64 528 207426 98801124
352	70335035 873 894958 933733 1160.129023351139 1240.129023351139 27 71 151 2565 271035
353	70335908 873 894958 933733 1160.129023351139 1240.129023351139 27 64 144 2376 236448
354	70336781 585 894966 933739 1160.129292504552 1240.129292504552 18 75 151 1926 225666
355	70337366 585 894966 933739 1160.129292504552 1240.129292504552 18 68 144 1800 199584
356	70337951 11988 893712 933742 1158.704888986389 1240.129373400851 364 55 535 155784 76353620
357	70349939 11988 893712 933742 1158.704888986389 1240.129373400851 364 48 528 153236 74190480
358	70361927 793 894955 933730 1160.128923347561 1240.128923347561 25 71 151 2311 238489
359	70362720 793 894955 933730 1160.128923347561 1240.128923347561 25 64 144 2136 207360
360	70363513 3980 893573 933736 1158.507638986389 1240.12927570675 122 55 535 45826 21759058
361	70367493 3980 893573 933736 1158.507638986389 1240.12927570675 122 48 528 44972 21123472
362	70371473 16730 893529 933745 1158.454888986389 1240.129597807824 508 55 535 210902 101566876
363	70388203 16730 893529 933745 1158.454888986389 1240.129597807824 508 48 528 207346 98639140
364	70404933 585 894971 933750 1160.131782276554 1240.131782276554 18 75 151 1926 225666
365	70405518 585 894971 933750 1160.131782276554 1240.131782276554 18 68 144 1800 199584
366	70406103 593 894975 933754 1160.132486760164 1240.132486760164 20 71 151 1624 141356
367	70406696 593 894975 933754 1160.132486760164 1240.132486760164 20 64 144 1484 119600
368	70407289 585 894978 933757 1160.134089763719 1240.134089763719 18 75 151 1926 225666
369	70407874 585 894978 933757 1160.134089763719 1240.134089763719 18 68 144 1800 199584
370	70408459 5672 893569 933764 1158.503638986389 1240.136343115973 173 55 535 71779 35651981
371	70414131 5672 893569 933764 1158.503638986389 1240.136343115973 173 48 528 70568 34655552
372	70419803 757 894999 933769 1160.137496321822 1240.137496321822 24 71 151 2236 228288
373	70420560 757 894999 933769 1160.137496321822 1240.137496321822 24 64 144 2068 198160
374	70421317 873 895002 933772 1160.138083512909 1240.138083512909 27 71 151 2565 271035
375	70422190 873 895002 933772 1160.138083512909 1240.138083512909 27 64 144 2376 236448
376	70423063 934 895005 933775 1160.138132778686 1240.138132778686 30 55 151 2554 249582
377	70423997 934 895005 933775 1160.138132778686 1240.138132778686 30 48 144 2344 215296
378	70424931 447 895012 933779 1160.13857942101 1240.13857942101 16 71 91 1212 92392
379	70425378 447 895012 933779 1160.13857942101 1240.13857942101 16 64 84 1100 76208
380	70425825 4972 893609 933782 1158.542888986389 1240.138625121375 151 55 535 48169 19947127
381	70430797 4972 893609 933782 1158.542888986389 1240.138625121375 151 48 528 47112 19280160
382	70435769 4831 893610 933783 1158.542888986389 1240.138625121375 151 -1 -1 -151 151
383	70440600 4972 893610 933783 1158.542888986389 1240.138625121375 151 48 528 47112 19280160
384	70445572 576 895024 933791 1160.14080181749 1240.14080181749 18 75 151 1926 225666
385	70446148 576 895024 933791 1160.14080181749 1240.14080181749 18 68 144 1800 199584
386	70446724 488 895020 933787 1160.140513288281 1240.140513288281 17 71 91 1283 97433
387	70447212 488 895020 933787 1160.140513288281 1240.140513288281 17 64 84 1164 80304
388	70447700 480 895027 933794 1160.142553060732 1240.142553060732 17 71 91 1263 94193
389	70448180 480 895027 933794 1160.142553060732 1240.142553060732 17 64 84 1144 77344
390	70448660 521 895031 933798 1160.145134331586 1240.145134331586 18 71 139 1402 113514
391	70449181 521 895031 933798 1160.145134331586 1240.145134331586 18 64 132 1276 94768
392	70449702 765 895036 933803 1160.148059950379 1240.148059950379 24 55 359 2412 338848
393	70450467 765 895036 933803 1160.148059950379 1240.148059950379 24 48 352 2244 306256
394	70451232 480 895039 933806 1160.149055914097 1240.149055914097 17 71 91 1263 94193
395	70451712 480 895039 933806 1160.149055914097 1240.149055914097 17 64 84 1144 77344
396	70452192 480 895055 933810 1160.153336309436 1240.153336309436 17 71 91 1263 94193
397	70452672 480 895055 933810 1160.153336309436 1240.153336309436 17 64 84 1144 77344
398	70453152 725 895071 933814 1160.157726617754 1240.157726617754 23 71 151 2117 212207
399	70453877 725 895071 933814 1160.157726617754 1240.157726617754 23 64 144 1956 183696
405	70454602 32 928989 928989 1211.178388588686 1211.178388588686 1 28 28 28 784
406	70454634 58896 893535 929004 1158.472844616389 1211.178400208686 1788 28 528 698110 319545460
407	70513530 58897 893536 929005 1158.472844616389 1211.178400208686 1788 46 546 730294 345256732
408	70572427 58897 893536 929005 1158.472844616389 1211.178400208686 1788 64 546 730312 345258712
409	70631324 110659 893536 929005 1158.472844616389 1211.178400208686 3576 0 1 1788 1788
410	70741983 58897 893536 929005 1158.472844616389 1211.178400208686 1788 64 546 730312 345258712
411	70800880 58897 893536 929005 1158.472844616389 1211.178400208686 1788 64 546 730312 345258712
412	70859777 110659 893536 929005 1158.472844616389 1211.178400208686 3576 0 1 1788 1788
413	70970436 58912 893536 929005 1158.472844616389 1211.178400208686 1788 64 546 730312 345258712
414	71029348 55517 893536 929005 1158.472844616389 1211.178400208686 1788 0 2.2002979e-05 0.000330044685 7.2619662731166e-09
415	71084865 166551 893536 929005 1158.472844616389 1211.178400208686 5364 0 2.2002979e-05 0.000990134055 2.178589881935e-08
416	71251416 58912 893536 929005 1158.472844616389 1211.178400208686 1788 64 546 730312 345258712
417	71310328 58912 893536 929005 1158.472844616389 1211.178400208686 1788 64 546 730312 345258712
418	71369240 58912 893537 929007 1158.472888936389 1211.178409488686 1788 64 546 730312 345258712
419	71428152 58912 893538 929008 1158.472888986389 1211.178409538686 1788 64 546 730312 345258712
420	71487064 58945 893523 929008 1158.453557768763 1211.178409538686 1789 64 546 730530 345306236
421	71546009 58944 893524 929009 1158.453557768763 1211.178409538686 1789 46 528 698328 319586792
422	71604953 55369 893525 929010 1158.453557768763 1211.178409538686 1789 -1 2 1040 1044
423	71660322 32 928996 928996 1211.178394398686 1211.178394398686 1 28 28 28 784
424	71660354 58912 893525 929010 1158.453557768763 1211.178409538686 1788 90 528 698282 319584676
425	71719266 32 927683 927683 1206.827638986389 1206.827638986389 1 28 28 28 784
426	71719298 32 927689 927689 1206.827644796389 1206.827644796389 1 28 28 28 784
427	71719330 32 927690 927690 1206.827644796389 1206.827644796389 1 28 28 28 784
428	71719362 32 927691 927691 1206.827644796389 1206.827644796389 1 46 46 46 2116
429	71719394 32 927691 927691 1206.827644796389 1206.827644796389 1 64 64 64 4096
430	71719426 62 927691 927691 1206.827644796389 1206.827644796389 2 0 1 1 1
431	71719488 32 927691 927691 1206.827644796389 1206.827644796389 1 64 64 64 4096
432	71719520 32 927691 927691 1206.827644796389 1206.827644796389 1 64 64 64 4096
433	71719552 62 927691 927691 1206.827644796389 1206.827644796389 2 0 1 1 1
434	71719614 32 927691 927691 1206.827644796389 1206.827644796389 1 64 64 64 4096
435	71719646 31 927691 927691 1206.827644796389 1206.827644796389 1 0 0 0 0
436	71719677 93 927691 927691 1206.827644796389 1206.827644796389 3 0 0 0 0
437	71719770 32 927691 927691 1206.827644796389 1206.827644796389 1 64 64 64 4096
438	71719802 32 927691 927691 1206.827644796389 1206.827644796389 1 64 64 64 4096
439	71719834 32 927693 927693 1206.827650556389 1206.827650556389 1 64 64 64 4096
440	71719866 32 927694 927694 1206.827650606389 1206.827650606389 1 64 64 64 4096
441	71719898 32 927694 927694 1206.827650606389 1206.827650606389 1 64 64 64 4096
442	71719930 32 927695 927695 1206.827650606389 1206.827650606389 1 46 46 46 2116
443	71719962 32 927696 927696 1206.827650606389 1206.827650606389 1 -1 -1 -1 1
466	71719994 24545 893544 926155 1158.473539638763 1199.82940713889 747 172 172 128484 22099248
467	71744539 58832 893533 926237 1158.472844616389 1199.992844616389 1786 180 508 662272 292331296
468	71803371 34287 893532 926236 1158.472844616389 1199.992844616389 1039 500 500 519500 259750000
478	71837658 3663 893708 932783 1158.702157116389 1235.984407116389 111 180 508 35396 14202608
479	71841321 3774 893708 932783 1158.702157116389 1235.984407116389 111 1747 1857 200022 360553604
480	71845095 1782 893709 932784 1158.702157116389 1235.984407116389 54 172 172 9288 1597536
481	71846877 2406 893709 932784 1158.702157116389 1235.984407116389 54 0.888617477626 36.766614458754 1067.4662985323 30174.336013904
482	71849283 1551 902352 932762 1168.425183356389 1235.932683356389 47 500 500 23500 11750000
483	71850834 18368 902352 934347 1158.3 1250 918 0 40000 1920000 76800000000
484	71869202 1930 902352 932762 1168.425183356389 1235.932683356389 47 9.79233874 37.32683874 1610.8596068588 56383.135533134
485	71871132 1645 902352 932762 1168.425183356389 1235.932683356389 47 28371 29938 1373077 40123101517
494	71872777 11946 893607 932689 1158.535888986389 1235.525388986389 362 200 528 175720 89696960
495	71884723 11946 893607 932689 1158.535888986389 1235.525388986389 362 200 528 175720 89696960
496	71896669 692 896068 932622 1161.389888986389 1234.724888986389 21 120 528 7648 3415424
497	71897361 692 896068 932622 1161.389888986389 1234.724888986389 21 120 528 7648 3415424
502	71898053 330 893806 920764 1158.852407116389 1191.688407116389 10 172 172 1720 295840
503	71898383 44572 896032 926246 1161.312888986389 1199.992888986389 1353 48 528 506580 226295664
518	71942955 4964 911022 929035 1180.089873400851 1211.230909538686 151 64 528 55822 25118260
519	71947919 1713 893831 902831 1158.908888986389 1169.163888986389 52 48 528 21268 10125584
538	71949632 31 928988 928988 1211.178388588686 1211.178388588686 1 0 0 0 0
539	71949663 39 928988 928988 1211.178388588686 1211.178388588686 1 147517541 147517541 147517541 2.1761424902687e+16
540	71949702 34 928988 928988 1211.178388588686 1211.178388588686 1 7504 7504 7504 56310016
541	71949736 39 928988 928988 1211.178388588686 1211.178388588686 1 147510037 147510037 147510037 2.1759211015741e+16
550	71949775 39 928988 928988 1211.178388588686 1211.178388588686 1 145669103 145669103 145669103 2.1219487568825e+16
553	71949814 31 928988 928988 1211.178388588686 1211.178388588686 1 8 8 8 64
554	71949845 34 928988 928988 1211.178388588686 1211.178388588686 1 1072 1072 1072 1149184
555	71949879 33 928988 928988 1211.178388588686 1211.178388588686 1 536 536 536 287296
556	71949912 236403 934347 934347 0.1 1250 12500 0 0 0 0

