version 2
run Exp2DropTailWithPolicingAndShaping-0-20210404-00:58:16-71548
attr configname Exp2DropTailWithPolicingAndShaping
attr datetime 20210404-00:58:16
attr experiment Exp2DropTailWithPolicingAndShaping
attr inifile omnetpp.ini
attr iterationvars ""
attr iterationvarsf ""
attr measurement ""
attr network NetworkWithShapingAndPolicing
attr processid 71548
attr repetition 0
attr replication #0
attr resultdir results
attr runnumber 0
attr seedset 0
param **.ppp[*].ppp.queue.typename "\"DropTailQueue\""
param **.eth[*].mac.queue.typename "\"EtherQosQueue\""
param **.eth[*].mac.queue.dataQueue.typename "\"DropTailQueue\""
param **.queue.packetCapacity 100
param **.H?.numApps 3
param **.H1.app[0].typename "\"UdpBasicBurst\""
param **.H1.app[0].destAddresses "\"H2\""
param **.H1.app[0].chooseDestAddrMode "\"once\""
param **.H1.app[0].destPort 1000
param **.H1.app[0].startTime uniform(1s,2s)
param **.H1.app[0].stopTime 1200s
param **.H1.app[0].messageLength 172B
param **.H1.app[0].burstDuration exponential(0.352s)
param **.H1.app[0].sleepDuration exponential(0.650s)
param **.H1.app[0].sendInterval 20ms
param **.H2.app[0].typename "\"UdpBasicBurst\""
param **.H2.app[0].localPort 1000
param **.H2.app[0].delayLimit 0ms
param **.H2.app[0].destAddresses "\"\""
param **.H2.app[0].chooseDestAddrMode "\"once\""
param **.H2.app[0].destPort 0
param **.H2.app[0].messageLength 0B
param **.H2.app[0].burstDuration 0s
param **.H2.app[0].sleepDuration 0s
param **.H2.app[0].sendInterval 0ms
param **.H1.app[1].typename "\"UdpBasicApp\""
param **.H1.app[1].destPort 2000
param **.H1.app[1].startTime uniform(1s,2s)
param **.H1.app[1].stopTime 1200s
param **.H1.app[1].sendInterval 40ms
param **.H1.app[1].messageLength 500B
param **.H1.app[1].destAddresses "\"H2\""
param **.H2.app[1].typename "\"UdpSink\""
param **.H2.app[1].localPort 2000
param **.H1.app[2].typename "\"TcpBasicClientApp\""
param **.H1.app[2].connectAddress "\"H2\""
param **.H1.app[2].connectPort 3000
param **.H1.app[2].numRequestsPerSession 1
param **.H1.app[2].requestLength 50B
param **.H1.app[2].replyLength 100B
param **.H1.app[2].thinkTime 40ms
param **.H1.app[2].idleInterval 10s
param **.H1.app[2].stopTime 1200s
param **.H2.app[2].typename "\"TcpGenericServerApp\""
param **.H2.app[2].localPort 3000
param **.edgeDatarate 32kbps
param **.coreDatarate 16kbps
param **.R1.eth[?].ingressTC.typename "\"TC1\""
param **.R15.eth[?].ingressTC.typename "\"TC1\""
param **.ingressTC.numClasses 3
param **.ingressTC.classifier.filters "xmldoc(\"filters.xml\", \"//experiment[@id='default']\")"
param **.ingressTC.marker.dscps "\"AF11 AF21 AF31 AF41 BE\""
param **.R8.ppp[2].egressTC.typename "\"TrafficConditioner\""
param **.R8.ppp[2].egressTC.efMeter.cir "\"70%\""
param **.R8.ppp[2].egressTC.efMeter.cbs 50KiB
param **.R8.ppp[2].egressTC.defaultMeter.cir "\"30%\""
param **.R8.ppp[2].egressTC.defaultMeter.cbs 2KiB
param **.R8.ppp[2].egressTC.defaultMeter.ebs 4KiB
param **.R9.ppp[0].ingressTC.typename "\"TrafficConditioner\""
param **.R9.ppp[0].ingressTC.efMeter.cir "\"50%\""
param **.R9.ppp[0].ingressTC.efMeter.cbs 40KiB
param **.R9.ppp[0].ingressTC.defaultMeter.cir "\"25%\""
param **.R9.ppp[0].ingressTC.defaultMeter.cbs 2KiB
param **.R9.ppp[0].ingressTC.defaultMeter.ebs 4KiB
param **.queue.typename "\"EtherQosQueue\""
param **.queue.dataQueue.typename "\"DropTailQueue\""
param **.queue.packetCapacity 100
param **.queue.dataQueue.packetCapacity 100
param **.R*.hasOspf true
param **.R*.ospf.ospfConfig "xmldoc(\"OSPFConfig.xml\")"

scalar NetworkWithShapingAndPolicing.R1.pppg$o[0].channel packetsDiscarded:count 0
attr interpolationmode none
attr source constant1(messageDiscarded)
scalar NetworkWithShapingAndPolicing.R1.pppg$o[0].channel utilization:last 0.83319027157075
attr source timeavg(channelBusy)
scalar NetworkWithShapingAndPolicing.R1.pppg$o[0].channel packets:count 9681
attr interpolationmode none
attr source constant1(messageSent)
scalar NetworkWithShapingAndPolicing.R1.pppg$o[0].channel packetBytes:sum 4133049
attr interpolationmode none
attr source packetBytes(messageSent)
attr unit B
scalar NetworkWithShapingAndPolicing.R1.pppg$o[0].channel throughput:last 26662.491811464
attr source sumPerDuration(packetBits(messageSent))
attr unit bps
scalar NetworkWithShapingAndPolicing.R1.pppg$o[1].channel packetsDiscarded:count 0
attr interpolationmode none
attr source constant1(messageDiscarded)
scalar NetworkWithShapingAndPolicing.R1.pppg$o[1].channel utilization:last 0.38216662054299
attr source timeavg(channelBusy)
scalar NetworkWithShapingAndPolicing.R1.pppg$o[1].channel packets:count 4581
attr interpolationmode none
attr source constant1(messageSent)
scalar NetworkWithShapingAndPolicing.R1.pppg$o[1].channel packetBytes:sum 1895741
attr interpolationmode none
attr source packetBytes(messageSent)
attr unit B
scalar NetworkWithShapingAndPolicing.R1.pppg$o[1].channel throughput:last 12229.516760524
attr source sumPerDuration(packetBits(messageSent))
attr unit bps
scalar NetworkWithShapingAndPolicing.R1.ethg$o[0].channel packetsDiscarded:count 0
attr interpolationmode none
attr source constant1(messageDiscarded)
scalar NetworkWithShapingAndPolicing.R1.ethg$o[0].channel utilization:last 9.0972779972618e-07
attr source timeavg(channelBusy)
scalar NetworkWithShapingAndPolicing.R1.ethg$o[0].channel packets:count 162
attr interpolationmode none
attr source constant1(messageSent)
scalar NetworkWithShapingAndPolicing.R1.ethg$o[0].channel packetBytes:sum 14102
attr interpolationmode none
attr source packetBytes(messageSent)
attr unit B
scalar NetworkWithShapingAndPolicing.R1.ethg$o[0].channel throughput:last 90.972780500802
attr source sumPerDuration(packetBits(messageSent))
attr unit bps
scalar NetworkWithShapingAndPolicing.R2.pppg$o[0].channel packetsDiscarded:count 0
attr interpolationmode none
attr source constant1(messageDiscarded)
scalar NetworkWithShapingAndPolicing.R2.pppg$o[0].channel utilization:last 0.00464696207966
attr source timeavg(channelBusy)
scalar NetworkWithShapingAndPolicing.R2.pppg$o[0].channel packets:count 273
attr interpolationmode none
attr source constant1(messageSent)
scalar NetworkWithShapingAndPolicing.R2.pppg$o[0].channel packetBytes:sum 23051
attr interpolationmode none
attr source packetBytes(messageSent)
attr unit B
scalar NetworkWithShapingAndPolicing.R2.pppg$o[0].channel throughput:last 148.70503491142
attr source sumPerDuration(packetBits(messageSent))
attr unit bps
scalar NetworkWithShapingAndPolicing.R2.pppg$o[1].channel packetsDiscarded:count 0
attr interpolationmode none
attr source constant1(messageDiscarded)
scalar NetworkWithShapingAndPolicing.R2.pppg$o[1].channel utilization:last 0.012090479426694
attr source timeavg(channelBusy)
scalar NetworkWithShapingAndPolicing.R2.pppg$o[1].channel packets:count 322
attr interpolationmode none
attr source constant1(messageSent)
scalar NetworkWithShapingAndPolicing.R2.pppg$o[1].channel packetBytes:sum 59974
attr interpolationmode none
attr source packetBytes(messageSent)
attr unit B
scalar NetworkWithShapingAndPolicing.R2.pppg$o[1].channel throughput:last 386.90119146524
attr source sumPerDuration(packetBits(messageSent))
attr unit bps
scalar NetworkWithShapingAndPolicing.R2.pppg$o[2].channel packetsDiscarded:count 0
attr interpolationmode none
attr source constant1(messageDiscarded)
scalar NetworkWithShapingAndPolicing.R2.pppg$o[2].channel utilization:last 0.61611913599637
attr source timeavg(channelBusy)
scalar NetworkWithShapingAndPolicing.R2.pppg$o[2].channel packets:count 3737
attr interpolationmode none
attr source constant1(messageSent)
scalar NetworkWithShapingAndPolicing.R2.pppg$o[2].channel packetBytes:sum 1528141
attr interpolationmode none
attr source packetBytes(messageSent)
attr unit B
scalar NetworkWithShapingAndPolicing.R2.pppg$o[2].channel throughput:last 9858.2042748227
attr source sumPerDuration(packetBits(messageSent))
attr unit bps
scalar NetworkWithShapingAndPolicing.R3.pppg$o[0].channel packetsDiscarded:count 0
attr interpolationmode none
attr source constant1(messageDiscarded)
scalar NetworkWithShapingAndPolicing.R3.pppg$o[0].channel utilization:last 0.0036941437999959
attr source timeavg(channelBusy)
scalar NetworkWithShapingAndPolicing.R3.pppg$o[0].channel packets:count 215
attr interpolationmode none
attr source constant1(messageSent)
scalar NetworkWithShapingAndPolicing.R3.pppg$o[0].channel packetBytes:sum 18325
attr interpolationmode none
attr source packetBytes(messageSent)
attr unit B
scalar NetworkWithShapingAndPolicing.R3.pppg$o[0].channel throughput:last 118.21438891618
attr source sumPerDuration(packetBits(messageSent))
attr unit bps
scalar NetworkWithShapingAndPolicing.R3.pppg$o[1].channel packetsDiscarded:count 0
attr interpolationmode none
attr source constant1(messageDiscarded)
scalar NetworkWithShapingAndPolicing.R3.pppg$o[1].channel utilization:last 0.012546214490802
attr source timeavg(channelBusy)
scalar NetworkWithShapingAndPolicing.R3.pppg$o[1].channel packets:count 353
attr interpolationmode none
attr source constant1(messageSent)
scalar NetworkWithShapingAndPolicing.R3.pppg$o[1].channel packetBytes:sum 62235
attr interpolationmode none
attr source packetBytes(messageSent)
attr unit B
scalar NetworkWithShapingAndPolicing.R3.pppg$o[1].channel throughput:last 401.48493398294
attr source sumPerDuration(packetBits(messageSent))
attr unit bps
scalar NetworkWithShapingAndPolicing.R4.pppg$o[0].channel packetsDiscarded:count 0
attr interpolationmode none
attr source constant1(messageDiscarded)
scalar NetworkWithShapingAndPolicing.R4.pppg$o[0].channel utilization:last 0.026511177389357
attr source timeavg(channelBusy)
scalar NetworkWithShapingAndPolicing.R4.pppg$o[0].channel packets:count 565
attr interpolationmode none
attr source constant1(messageSent)
scalar NetworkWithShapingAndPolicing.R4.pppg$o[0].channel packetBytes:sum 131507
attr interpolationmode none
attr source packetBytes(messageSent)
attr unit B
scalar NetworkWithShapingAndPolicing.R4.pppg$o[0].channel throughput:last 848.37050351478
attr source sumPerDuration(packetBits(messageSent))
attr unit bps
scalar NetworkWithShapingAndPolicing.R4.pppg$o[1].channel packetsDiscarded:count 0
attr interpolationmode none
attr source constant1(messageDiscarded)
scalar NetworkWithShapingAndPolicing.R4.pppg$o[1].channel utilization:last 0.81326446743196
attr source timeavg(channelBusy)
scalar NetworkWithShapingAndPolicing.R4.pppg$o[1].channel packets:count 9462
attr interpolationmode none
attr source constant1(messageSent)
scalar NetworkWithShapingAndPolicing.R4.pppg$o[1].channel packetBytes:sum 4034200
attr interpolationmode none
attr source packetBytes(messageSent)
attr unit B
scalar NetworkWithShapingAndPolicing.R4.pppg$o[1].channel throughput:last 26024.856439018
attr source sumPerDuration(packetBits(messageSent))
attr unit bps
scalar NetworkWithShapingAndPolicing.R5.pppg$o[0].channel packetsDiscarded:count 0
attr interpolationmode none
attr source constant1(messageDiscarded)
scalar NetworkWithShapingAndPolicing.R5.pppg$o[0].channel utilization:last 0.0055505309977011
attr source timeavg(channelBusy)
scalar NetworkWithShapingAndPolicing.R5.pppg$o[0].channel packets:count 255
attr interpolationmode none
attr source constant1(messageSent)
scalar NetworkWithShapingAndPolicing.R5.pppg$o[0].channel packetBytes:sum 27533
attr interpolationmode none
attr source packetBytes(messageSent)
attr unit B
scalar NetworkWithShapingAndPolicing.R5.pppg$o[0].channel throughput:last 177.61967747703
attr source sumPerDuration(packetBits(messageSent))
attr unit bps
scalar NetworkWithShapingAndPolicing.R5.pppg$o[1].channel packetsDiscarded:count 0
attr interpolationmode none
attr source constant1(messageDiscarded)
scalar NetworkWithShapingAndPolicing.R5.pppg$o[1].channel utilization:last 0.97464988349172
attr source timeavg(channelBusy)
scalar NetworkWithShapingAndPolicing.R5.pppg$o[1].channel packets:count 5378
attr interpolationmode none
attr source constant1(messageSent)
scalar NetworkWithShapingAndPolicing.R5.pppg$o[1].channel packetBytes:sum 2417380
attr interpolationmode none
attr source packetBytes(messageSent)
attr unit B
scalar NetworkWithShapingAndPolicing.R5.pppg$o[1].channel throughput:last 15594.869706471
attr source sumPerDuration(packetBits(messageSent))
attr unit bps
scalar NetworkWithShapingAndPolicing.R6.pppg$o[0].channel packetsDiscarded:count 0
attr interpolationmode none
attr source constant1(messageDiscarded)
scalar NetworkWithShapingAndPolicing.R6.pppg$o[0].channel utilization:last 0.0046900306557215
attr source timeavg(channelBusy)
scalar NetworkWithShapingAndPolicing.R6.pppg$o[0].channel packets:count 259
attr interpolationmode none
attr source constant1(messageSent)
scalar NetworkWithShapingAndPolicing.R6.pppg$o[0].channel packetBytes:sum 23265
attr interpolationmode none
attr source packetBytes(messageSent)
attr unit B
scalar NetworkWithShapingAndPolicing.R6.pppg$o[0].channel throughput:last 150.08325014829
attr source sumPerDuration(packetBits(messageSent))
attr unit bps
scalar NetworkWithShapingAndPolicing.R6.pppg$o[1].channel packetsDiscarded:count 0
attr interpolationmode none
attr source constant1(messageDiscarded)
scalar NetworkWithShapingAndPolicing.R6.pppg$o[1].channel utilization:last 0.023655882834586
attr source timeavg(channelBusy)
scalar NetworkWithShapingAndPolicing.R6.pppg$o[1].channel packets:count 327
attr interpolationmode none
attr source constant1(messageSent)
scalar NetworkWithShapingAndPolicing.R6.pppg$o[1].channel packetBytes:sum 58673
attr interpolationmode none
attr source packetBytes(messageSent)
attr unit B
scalar NetworkWithShapingAndPolicing.R6.pppg$o[1].channel throughput:last 378.50557084376
attr source sumPerDuration(packetBits(messageSent))
attr unit bps
scalar NetworkWithShapingAndPolicing.R7.pppg$o[0].channel packetsDiscarded:count 0
attr interpolationmode none
attr source constant1(messageDiscarded)
scalar NetworkWithShapingAndPolicing.R7.pppg$o[0].channel utilization:last 0.31497935417829
attr source timeavg(channelBusy)
scalar NetworkWithShapingAndPolicing.R7.pppg$o[0].channel packets:count 3762
attr interpolationmode none
attr source constant1(messageSent)
scalar NetworkWithShapingAndPolicing.R7.pppg$o[0].channel packetBytes:sum 1562444
attr interpolationmode none
attr source packetBytes(messageSent)
attr unit B
scalar NetworkWithShapingAndPolicing.R7.pppg$o[0].channel throughput:last 10079.491731093
attr source sumPerDuration(packetBits(messageSent))
attr unit bps
scalar NetworkWithShapingAndPolicing.R7.pppg$o[1].channel packetsDiscarded:count 0
attr interpolationmode none
attr source constant1(messageDiscarded)
scalar NetworkWithShapingAndPolicing.R7.pppg$o[1].channel utilization:last 0.010267421183407
attr source timeavg(channelBusy)
scalar NetworkWithShapingAndPolicing.R7.pppg$o[1].channel packets:count 310
attr interpolationmode none
attr source constant1(messageSent)
scalar NetworkWithShapingAndPolicing.R7.pppg$o[1].channel packetBytes:sum 25466
attr interpolationmode none
attr source packetBytes(messageSent)
attr unit B
scalar NetworkWithShapingAndPolicing.R7.pppg$o[1].channel throughput:last 164.28370664639
attr source sumPerDuration(packetBits(messageSent))
attr unit bps
scalar NetworkWithShapingAndPolicing.R7.pppg$o[2].channel packetsDiscarded:count 0
attr interpolationmode none
attr source constant1(messageDiscarded)
scalar NetworkWithShapingAndPolicing.R7.pppg$o[2].channel utilization:last 0.0091472383318651
attr source timeavg(channelBusy)
scalar NetworkWithShapingAndPolicing.R7.pppg$o[2].channel packets:count 240
attr interpolationmode none
attr source constant1(messageSent)
scalar NetworkWithShapingAndPolicing.R7.pppg$o[2].channel packetBytes:sum 22688
attr interpolationmode none
attr source packetBytes(messageSent)
attr unit B
scalar NetworkWithShapingAndPolicing.R7.pppg$o[2].channel throughput:last 146.36023897095
attr source sumPerDuration(packetBits(messageSent))
attr unit bps
scalar NetworkWithShapingAndPolicing.R11.pppg$o[0].channel packetsDiscarded:count 0
attr interpolationmode none
attr source constant1(messageDiscarded)
scalar NetworkWithShapingAndPolicing.R11.pppg$o[0].channel utilization:last 0.0040423188537553
attr source timeavg(channelBusy)
scalar NetworkWithShapingAndPolicing.R11.pppg$o[0].channel packets:count 208
attr interpolationmode none
attr source constant1(messageSent)
scalar NetworkWithShapingAndPolicing.R11.pppg$o[0].channel packetBytes:sum 20052
attr interpolationmode none
attr source packetBytes(messageSent)
attr unit B
scalar NetworkWithShapingAndPolicing.R11.pppg$o[0].channel throughput:last 129.35615910578
attr source sumPerDuration(packetBits(messageSent))
attr unit bps
scalar NetworkWithShapingAndPolicing.R11.pppg$o[1].channel packetsDiscarded:count 0
attr interpolationmode none
attr source constant1(messageDiscarded)
scalar NetworkWithShapingAndPolicing.R11.pppg$o[1].channel utilization:last 0.0064605018479784
attr source timeavg(channelBusy)
scalar NetworkWithShapingAndPolicing.R11.pppg$o[1].channel packets:count 204
attr interpolationmode none
attr source constant1(messageSent)
scalar NetworkWithShapingAndPolicing.R11.pppg$o[1].channel packetBytes:sum 16024
attr interpolationmode none
attr source packetBytes(messageSent)
attr unit B
scalar NetworkWithShapingAndPolicing.R11.pppg$o[1].channel throughput:last 103.37115532998
attr source sumPerDuration(packetBits(messageSent))
attr unit bps
scalar NetworkWithShapingAndPolicing.R12.pppg$o[0].channel packetsDiscarded:count 0
attr interpolationmode none
attr source constant1(messageDiscarded)
scalar NetworkWithShapingAndPolicing.R12.pppg$o[0].channel utilization:last 0.12873002760876
attr source timeavg(channelBusy)
scalar NetworkWithShapingAndPolicing.R12.pppg$o[0].channel packets:count 2080
attr interpolationmode none
attr source constant1(messageSent)
scalar NetworkWithShapingAndPolicing.R12.pppg$o[0].channel packetBytes:sum 638548
attr interpolationmode none
attr source packetBytes(messageSent)
attr unit B
scalar NetworkWithShapingAndPolicing.R12.pppg$o[0].channel throughput:last 4119.4231685541
attr source sumPerDuration(packetBits(messageSent))
attr unit bps
scalar NetworkWithShapingAndPolicing.R12.pppg$o[1].channel packetsDiscarded:count 0
attr interpolationmode none
attr source constant1(messageDiscarded)
scalar NetworkWithShapingAndPolicing.R12.pppg$o[1].channel utilization:last 0.0075890433446399
attr source timeavg(channelBusy)
scalar NetworkWithShapingAndPolicing.R12.pppg$o[1].channel packets:count 241
attr interpolationmode none
attr source constant1(messageSent)
scalar NetworkWithShapingAndPolicing.R12.pppg$o[1].channel packetBytes:sum 18823
attr interpolationmode none
attr source packetBytes(messageSent)
attr unit B
scalar NetworkWithShapingAndPolicing.R12.pppg$o[1].channel throughput:last 121.42836531919
attr source sumPerDuration(packetBits(messageSent))
attr unit bps
scalar NetworkWithShapingAndPolicing.R13.pppg$o[0].channel packetsDiscarded:count 0
attr interpolationmode none
attr source constant1(messageDiscarded)
scalar NetworkWithShapingAndPolicing.R13.pppg$o[0].channel utilization:last 0.0045405329933108
attr source timeavg(channelBusy)
scalar NetworkWithShapingAndPolicing.R13.pppg$o[0].channel packets:count 245
attr interpolationmode none
attr source constant1(messageSent)
scalar NetworkWithShapingAndPolicing.R13.pppg$o[0].channel packetBytes:sum 22523
attr interpolationmode none
attr source packetBytes(messageSent)
attr unit B
scalar NetworkWithShapingAndPolicing.R13.pppg$o[0].channel throughput:last 145.29925266042
attr source sumPerDuration(packetBits(messageSent))
attr unit bps
scalar NetworkWithShapingAndPolicing.R13.pppg$o[1].channel packetsDiscarded:count 0
attr interpolationmode none
attr source constant1(messageDiscarded)
scalar NetworkWithShapingAndPolicing.R13.pppg$o[1].channel utilization:last 0.0031438712307145
attr source timeavg(channelBusy)
scalar NetworkWithShapingAndPolicing.R13.pppg$o[1].channel packets:count 197
attr interpolationmode none
attr source constant1(messageSent)
scalar NetworkWithShapingAndPolicing.R13.pppg$o[1].channel packetBytes:sum 15595
attr interpolationmode none
attr source packetBytes(messageSent)
attr unit B
scalar NetworkWithShapingAndPolicing.R13.pppg$o[1].channel throughput:last 100.60540049744
attr source sumPerDuration(packetBits(messageSent))
attr unit bps
scalar NetworkWithShapingAndPolicing.R9.pppg$o[0].channel packetsDiscarded:count 0
attr interpolationmode none
attr source constant1(messageDiscarded)
scalar NetworkWithShapingAndPolicing.R9.pppg$o[0].channel utilization:last 0.006993987713877
attr source timeavg(channelBusy)
scalar NetworkWithShapingAndPolicing.R9.pppg$o[0].channel packets:count 221
attr interpolationmode none
attr source constant1(messageSent)
scalar NetworkWithShapingAndPolicing.R9.pppg$o[0].channel packetBytes:sum 17347
attr interpolationmode none
attr source packetBytes(messageSent)
attr unit B
scalar NetworkWithShapingAndPolicing.R9.pppg$o[0].channel throughput:last 111.90718733925
attr source sumPerDuration(packetBits(messageSent))
attr unit bps
scalar NetworkWithShapingAndPolicing.R9.pppg$o[1].channel packetsDiscarded:count 0
attr interpolationmode none
attr source constant1(messageDiscarded)
scalar NetworkWithShapingAndPolicing.R9.pppg$o[1].channel utilization:last 0.25825500140305
attr source timeavg(channelBusy)
scalar NetworkWithShapingAndPolicing.R9.pppg$o[1].channel packets:count 2091
attr interpolationmode none
attr source constant1(messageSent)
scalar NetworkWithShapingAndPolicing.R9.pppg$o[1].channel packetBytes:sum 640537
attr interpolationmode none
attr source packetBytes(messageSent)
attr unit B
scalar NetworkWithShapingAndPolicing.R9.pppg$o[1].channel throughput:last 4132.2049757226
attr source sumPerDuration(packetBits(messageSent))
attr unit bps
scalar NetworkWithShapingAndPolicing.R9.pppg$o[2].channel packetsDiscarded:count 0
attr interpolationmode none
attr source constant1(messageDiscarded)
scalar NetworkWithShapingAndPolicing.R9.pppg$o[2].channel utilization:last 0.0085950521625731
attr source timeavg(channelBusy)
scalar NetworkWithShapingAndPolicing.R9.pppg$o[2].channel packets:count 214
attr interpolationmode none
attr source constant1(messageSent)
scalar NetworkWithShapingAndPolicing.R9.pppg$o[2].channel packetBytes:sum 21318
attr interpolationmode none
attr source packetBytes(messageSent)
attr unit B
scalar NetworkWithShapingAndPolicing.R9.pppg$o[2].channel throughput:last 137.52499318015
attr source sumPerDuration(packetBits(messageSent))
attr unit bps
scalar NetworkWithShapingAndPolicing.R9.pppg$o[3].channel packetsDiscarded:count 0
attr interpolationmode none
attr source constant1(messageDiscarded)
scalar NetworkWithShapingAndPolicing.R9.pppg$o[3].channel utilization:last 0.0085970215466002
attr source timeavg(channelBusy)
scalar NetworkWithShapingAndPolicing.R9.pppg$o[3].channel packets:count 217
attr interpolationmode none
attr source constant1(messageSent)
scalar NetworkWithShapingAndPolicing.R9.pppg$o[3].channel packetBytes:sum 21323
attr interpolationmode none
attr source packetBytes(messageSent)
attr unit B
scalar NetworkWithShapingAndPolicing.R9.pppg$o[3].channel throughput:last 137.55650425493
attr source sumPerDuration(packetBits(messageSent))
attr unit bps
scalar NetworkWithShapingAndPolicing.R10.pppg$o[0].channel packetsDiscarded:count 0
attr interpolationmode none
attr source constant1(messageDiscarded)
scalar NetworkWithShapingAndPolicing.R10.pppg$o[0].channel utilization:last 0.0062811099400292
attr source timeavg(channelBusy)
scalar NetworkWithShapingAndPolicing.R10.pppg$o[0].channel packets:count 201
attr interpolationmode none
attr source constant1(messageSent)
scalar NetworkWithShapingAndPolicing.R10.pppg$o[0].channel packetBytes:sum 15579
attr interpolationmode none
attr source packetBytes(messageSent)
attr unit B
scalar NetworkWithShapingAndPolicing.R10.pppg$o[0].channel throughput:last 100.50079801871
attr source sumPerDuration(packetBits(messageSent))
attr unit bps
scalar NetworkWithShapingAndPolicing.R10.pppg$o[1].channel packetsDiscarded:count 0
attr interpolationmode none
attr source constant1(messageDiscarded)
scalar NetworkWithShapingAndPolicing.R10.pppg$o[1].channel utilization:last 0.0082302035135337
attr source timeavg(channelBusy)
scalar NetworkWithShapingAndPolicing.R10.pppg$o[1].channel packets:count 211
attr interpolationmode none
attr source constant1(messageSent)
scalar NetworkWithShapingAndPolicing.R10.pppg$o[1].channel packetBytes:sum 20413
attr interpolationmode none
attr source packetBytes(messageSent)
attr unit B
scalar NetworkWithShapingAndPolicing.R10.pppg$o[1].channel throughput:last 131.68723828472
attr source sumPerDuration(packetBits(messageSent))
attr unit bps
scalar NetworkWithShapingAndPolicing.R14.pppg$o[0].channel packetsDiscarded:count 0
attr interpolationmode none
attr source constant1(messageDiscarded)
scalar NetworkWithShapingAndPolicing.R14.pppg$o[0].channel utilization:last 0.0062396153249744
attr source timeavg(channelBusy)
scalar NetworkWithShapingAndPolicing.R14.pppg$o[0].channel packets:count 196
attr interpolationmode none
attr source constant1(messageSent)
scalar NetworkWithShapingAndPolicing.R14.pppg$o[0].channel packetBytes:sum 15476
attr interpolationmode none
attr source packetBytes(messageSent)
attr unit B
scalar NetworkWithShapingAndPolicing.R14.pppg$o[0].channel throughput:last 99.836864117402
attr source sumPerDuration(packetBits(messageSent))
attr unit bps
scalar NetworkWithShapingAndPolicing.R14.pppg$o[1].channel packetsDiscarded:count 0
attr interpolationmode none
attr source constant1(messageDiscarded)
scalar NetworkWithShapingAndPolicing.R14.pppg$o[1].channel utilization:last 0.0095388725134832
attr source timeavg(channelBusy)
scalar NetworkWithShapingAndPolicing.R14.pppg$o[1].channel packets:count 265
attr interpolationmode none
attr source constant1(messageSent)
scalar NetworkWithShapingAndPolicing.R14.pppg$o[1].channel packetBytes:sum 23659
attr interpolationmode none
attr source packetBytes(messageSent)
attr unit B
scalar NetworkWithShapingAndPolicing.R14.pppg$o[1].channel throughput:last 152.62657543228
attr source sumPerDuration(packetBits(messageSent))
attr unit bps
scalar NetworkWithShapingAndPolicing.R8.pppg$o[0].channel packetsDiscarded:count 0
attr interpolationmode none
attr source constant1(messageDiscarded)
scalar NetworkWithShapingAndPolicing.R8.pppg$o[0].channel utilization:last 0.0043102647025495
attr source timeavg(channelBusy)
scalar NetworkWithShapingAndPolicing.R8.pppg$o[0].channel packets:count 239
attr interpolationmode none
attr source constant1(messageSent)
scalar NetworkWithShapingAndPolicing.R8.pppg$o[0].channel packetBytes:sum 21381
attr interpolationmode none
attr source packetBytes(messageSent)
attr unit B
scalar NetworkWithShapingAndPolicing.R8.pppg$o[0].channel throughput:last 137.93055592148
attr source sumPerDuration(packetBits(messageSent))
attr unit bps
scalar NetworkWithShapingAndPolicing.R8.pppg$o[1].channel packetsDiscarded:count 0
attr interpolationmode none
attr source constant1(messageDiscarded)
scalar NetworkWithShapingAndPolicing.R8.pppg$o[1].channel utilization:last 0.01233967553839
attr source timeavg(channelBusy)
scalar NetworkWithShapingAndPolicing.R8.pppg$o[1].channel packets:count 334
attr interpolationmode none
attr source constant1(messageSent)
scalar NetworkWithShapingAndPolicing.R8.pppg$o[1].channel packetBytes:sum 30606
attr interpolationmode none
attr source packetBytes(messageSent)
attr unit B
scalar NetworkWithShapingAndPolicing.R8.pppg$o[1].channel throughput:last 197.44077890229
attr source sumPerDuration(packetBits(messageSent))
attr unit bps
scalar NetworkWithShapingAndPolicing.R8.pppg$o[2].channel packetsDiscarded:count 0
attr interpolationmode none
attr source constant1(messageDiscarded)
scalar NetworkWithShapingAndPolicing.R8.pppg$o[2].channel utilization:last 0.30782455115591
attr source timeavg(channelBusy)
scalar NetworkWithShapingAndPolicing.R8.pppg$o[2].channel packets:count 2423
attr interpolationmode none
attr source constant1(messageSent)
scalar NetworkWithShapingAndPolicing.R8.pppg$o[2].channel packetBytes:sum 763489
attr interpolationmode none
attr source packetBytes(messageSent)
attr unit B
scalar NetworkWithShapingAndPolicing.R8.pppg$o[2].channel throughput:last 4925.3417539523
attr source sumPerDuration(packetBits(messageSent))
attr unit bps
scalar NetworkWithShapingAndPolicing.R15.pppg$o[0].channel packetsDiscarded:count 0
attr interpolationmode none
attr source constant1(messageDiscarded)
scalar NetworkWithShapingAndPolicing.R15.pppg$o[0].channel utilization:last 0.0043660853563152
attr source timeavg(channelBusy)
scalar NetworkWithShapingAndPolicing.R15.pppg$o[0].channel packets:count 246
attr interpolationmode none
attr source constant1(messageSent)
scalar NetworkWithShapingAndPolicing.R15.pppg$o[0].channel packetBytes:sum 21658
attr interpolationmode none
attr source packetBytes(messageSent)
attr unit B
scalar NetworkWithShapingAndPolicing.R15.pppg$o[0].channel throughput:last 139.71684383975
attr source sumPerDuration(packetBits(messageSent))
attr unit bps
scalar NetworkWithShapingAndPolicing.R15.pppg$o[1].channel packetsDiscarded:count 0
attr interpolationmode none
attr source constant1(messageDiscarded)
scalar NetworkWithShapingAndPolicing.R15.pppg$o[1].channel utilization:last 0.0039278421090389
attr source timeavg(channelBusy)
scalar NetworkWithShapingAndPolicing.R15.pppg$o[1].channel packets:count 240
attr interpolationmode none
attr source constant1(messageSent)
scalar NetworkWithShapingAndPolicing.R15.pppg$o[1].channel packetBytes:sum 19484
attr interpolationmode none
attr source packetBytes(messageSent)
attr unit B
scalar NetworkWithShapingAndPolicing.R15.pppg$o[1].channel throughput:last 125.6928479011
attr source sumPerDuration(packetBits(messageSent))
attr unit bps
scalar NetworkWithShapingAndPolicing.R15.pppg$o[2].channel packetsDiscarded:count 0
attr interpolationmode none
attr source constant1(messageDiscarded)
scalar NetworkWithShapingAndPolicing.R15.pppg$o[2].channel utilization:last 0.01000784578217
attr source timeavg(channelBusy)
scalar NetworkWithShapingAndPolicing.R15.pppg$o[2].channel packets:count 270
attr interpolationmode none
attr source constant1(messageSent)
scalar NetworkWithShapingAndPolicing.R15.pppg$o[2].channel packetBytes:sum 24822
attr interpolationmode none
attr source packetBytes(messageSent)
attr unit B
scalar NetworkWithShapingAndPolicing.R15.pppg$o[2].channel throughput:last 160.13037467116
attr source sumPerDuration(packetBits(messageSent))
attr unit bps
scalar NetworkWithShapingAndPolicing.R15.ethg$o[0].channel packetsDiscarded:count 0
attr interpolationmode none
attr source constant1(messageDiscarded)
scalar NetworkWithShapingAndPolicing.R15.ethg$o[0].channel utilization:last 4.2979852991284e-05
attr source timeavg(channelBusy)
scalar NetworkWithShapingAndPolicing.R15.ethg$o[0].channel packets:count 2001
attr interpolationmode none
attr source constant1(messageSent)
scalar NetworkWithShapingAndPolicing.R15.ethg$o[0].channel packetBytes:sum 666252
attr interpolationmode none
attr source packetBytes(messageSent)
attr unit B
scalar NetworkWithShapingAndPolicing.R15.ethg$o[0].channel throughput:last 4297.9853240821
attr source sumPerDuration(packetBits(messageSent))
attr unit bps
scalar NetworkWithShapingAndPolicing.H1.ethg$o[0].channel packetsDiscarded:count 0
attr interpolationmode none
attr source constant1(messageDiscarded)
scalar NetworkWithShapingAndPolicing.H1.ethg$o[0].channel utilization:last 0.001422273173386
attr source timeavg(channelBusy)
scalar NetworkWithShapingAndPolicing.H1.ethg$o[0].channel packets:count 51846
attr interpolationmode none
attr source constant1(messageSent)
scalar NetworkWithShapingAndPolicing.H1.ethg$o[0].channel packetBytes:sum 21532832
attr interpolationmode none
attr source packetBytes(messageSent)
attr unit B
scalar NetworkWithShapingAndPolicing.H1.ethg$o[0].channel throughput:last 142227.31842833
attr source sumPerDuration(packetBits(messageSent))
attr unit bps
scalar NetworkWithShapingAndPolicing.H2.ethg$o[0].channel packetsDiscarded:count 0
attr interpolationmode none
attr source constant1(messageDiscarded)
scalar NetworkWithShapingAndPolicing.H2.ethg$o[0].channel utilization:last 1.8905765035696e-07
attr source timeavg(channelBusy)
scalar NetworkWithShapingAndPolicing.H2.ethg$o[0].channel packets:count 37
attr interpolationmode none
attr source constant1(messageSent)
scalar NetworkWithShapingAndPolicing.H2.ethg$o[0].channel packetBytes:sum 2852
attr interpolationmode none
attr source packetBytes(messageSent)
attr unit B
scalar NetworkWithShapingAndPolicing.H2.ethg$o[0].channel throughput:last 18.90576512593
attr source sumPerDuration(packetBits(messageSent))
attr unit bps
scalar NetworkWithShapingAndPolicing.R1.lo[0].lo rcvdPkFromHl:count 0
attr interpolationmode none
attr source packetReceivedFromUpper
attr title "packets received from higher layer, count"
scalar NetworkWithShapingAndPolicing.R1.lo[0].lo rcvdPkFromHl:sum(packetBytes) 0
attr interpolationmode none
attr source packetReceivedFromUpper
attr title "packets received from higher layer, sum(packetBytes)"
scalar NetworkWithShapingAndPolicing.R1.lo[0].lo passedUpPk:count 0
attr interpolationmode none
attr source packetSentToUpper
attr title "packets passed to higher layer, count"
scalar NetworkWithShapingAndPolicing.R1.lo[0].lo passedUpPk:sum(packetBytes) 0
attr interpolationmode none
attr source packetSentToUpper
attr title "packets passed to higher layer, sum(packetBytes)"
scalar NetworkWithShapingAndPolicing.R1.ppp[0].ppp.queue packetPopped:count 9681
attr interpolationmode none
attr title "packet popped, count"
scalar NetworkWithShapingAndPolicing.R1.ppp[0].ppp.queue packetPopped:sum(packetBytes) 4065282
attr interpolationmode none
attr title "packet popped, sum(packetBytes)"
statistic NetworkWithShapingAndPolicing.R1.ppp[0].ppp.queue queueingTime:histogram
field count 9681
field mean 9.6236307286106
field stddev 3.0216566833601
field min 0
field max 12.947052202666
field sum 93166.369083679
field sqrsum 984981.09259185
attr interpolationmode none
attr source queueingTime(packetPopped)
attr title "queueing times, histogram"
attr unit s
bin	-inf	0
bin	0	162
bin	0.2	46
bin	0.4	39
bin	0.6	42
bin	0.8	42
bin	1	37
bin	1.2	41
bin	1.4	37
bin	1.6	39
bin	1.8	44
bin	2	43
bin	2.2	37
bin	2.4	38
bin	2.6	37
bin	2.8	36
bin	3	39
bin	3.2	39
bin	3.4	38
bin	3.6	34
bin	3.8	39
bin	4	37
bin	4.2	38
bin	4.4	40
bin	4.6	40
bin	4.8	38
bin	5	36
bin	5.2	40
bin	5.4	47
bin	5.6	38
bin	5.8	37
bin	6	39
bin	6.2	38
bin	6.4	35
bin	6.6	36
bin	6.8	39
bin	7	41
bin	7.2	36
bin	7.4	36
bin	7.6	36
bin	7.8	39
bin	8	35
bin	8.2	36
bin	8.4	42
bin	8.6	43
bin	8.8	73
bin	9	152
bin	9.2	116
bin	9.4	246
bin	9.6	216
bin	9.8	329
bin	10	372
bin	10.2	502
bin	10.4	532
bin	10.6	691
bin	10.8	930
bin	11	645
bin	11.2	688
bin	11.4	642
bin	11.6	614
bin	11.8	450
bin	12	249
bin	12.2	218
bin	12.4	117
bin	12.6	61
bin	12.8	7
bin	13	0
bin	13.2	0
bin	13.4	0
bin	13.6	0
bin	13.8	0
bin	14	0
bin	14.2	0
bin	14.4	0
scalar NetworkWithShapingAndPolicing.R1.ppp[0].ppp.queue queueLength:max 101
attr interpolationmode sample-hold
attr source "count(packetPushed) - count(packetPopped) - count(packetRemoved) - count(packetDropped)"
attr title "queue length, max"
scalar NetworkWithShapingAndPolicing.R1.ppp[0].ppp.queue queueLength:timeavg 74.539586043373
attr interpolationmode sample-hold
attr source "count(packetPushed) - count(packetPopped) - count(packetRemoved) - count(packetDropped)"
attr title "queue length, timeavg"
scalar NetworkWithShapingAndPolicing.R1.ppp[0].ppp.queue packetPushed:count 38634
attr interpolationmode none
attr title "packet pushed, count"
scalar NetworkWithShapingAndPolicing.R1.ppp[0].ppp.queue packetPushed:sum(packetBytes) 14885008
attr interpolationmode none
attr title "packet pushed, sum(packetBytes)"
scalar NetworkWithShapingAndPolicing.R1.ppp[0].ppp.queue packetDropQueueOverflow:count 28953
attr interpolationmode none
attr source packetDropReasonIsQueueOverflow(packetDropped)
attr title "packet drops: queue overflow, count"
scalar NetworkWithShapingAndPolicing.R1.ppp[0].ppp.queue packetDropQueueOverflow:sum(packetBytes) 10819726
attr interpolationmode none
attr source packetDropReasonIsQueueOverflow(packetDropped)
attr title "packet drops: queue overflow, sum(packetBytes)"
scalar NetworkWithShapingAndPolicing.R1.ppp[0].ppp.queue packetRemoved:count 0
attr interpolationmode none
attr title "packets removed, count"
scalar NetworkWithShapingAndPolicing.R1.ppp[0].ppp.queue packetRemoved:sum(packetBytes) 0
attr interpolationmode none
attr title "packets removed, sum(packetBytes)"
scalar NetworkWithShapingAndPolicing.R1.ppp[0].ppp transmissionState:timeavg 0.82660979999991
attr interpolationmode sample-hold
attr source transmissionStateChanged
attr title "tx state, timeavg"
scalar NetworkWithShapingAndPolicing.R1.ppp[0].ppp rxPkOk:count 565
attr interpolationmode none
attr source rxPkOk
attr title "packets received OK, count"
scalar NetworkWithShapingAndPolicing.R1.ppp[0].ppp rxPkOk:sum(packetBytes) 131507
attr interpolationmode none
attr source rxPkOk
attr title "packets received OK, sum(packetBytes)"
scalar NetworkWithShapingAndPolicing.R1.ppp[0].ppp txPk:count 9681
attr interpolationmode none
attr source packetSentToLower
attr title "packets transmitted, count"
scalar NetworkWithShapingAndPolicing.R1.ppp[0].ppp txPk:sum(packetBytes) 4133049
attr interpolationmode none
attr source packetSentToLower
attr title "packets transmitted, sum(packetBytes)"
scalar NetworkWithShapingAndPolicing.R1.ppp[0].ppp rcvdPkFromHl:count 38634
attr interpolationmode none
attr source packetReceivedFromUpper
attr title "packets received from higher layer, count"
scalar NetworkWithShapingAndPolicing.R1.ppp[0].ppp rcvdPkFromHl:sum(packetBytes) 14885008
attr interpolationmode none
attr source packetReceivedFromUpper
attr title "packets received from higher layer, sum(packetBytes)"
scalar NetworkWithShapingAndPolicing.R1.ppp[0].ppp passedUpPk:count 565
attr interpolationmode none
attr source packetSentToUpper
attr title "packets passed to higher layer, count"
scalar NetworkWithShapingAndPolicing.R1.ppp[0].ppp passedUpPk:sum(packetBytes) 127552
attr interpolationmode none
attr source packetSentToUpper
attr title "packets passed to higher layer, sum(packetBytes)"
scalar NetworkWithShapingAndPolicing.R1.ppp[0].ppp packetDropIncorrectlyReceived:count 0
attr interpolationmode none
attr source packetDropReasonIsIncorrectlyReceived(packetDropped)
attr title "packet drop: incorrectly received, count"
scalar NetworkWithShapingAndPolicing.R1.ppp[0].ppp packetDropIncorrectlyReceived:sum(packetBytes) 0
attr interpolationmode none
attr source packetDropReasonIsIncorrectlyReceived(packetDropped)
attr title "packet drop: incorrectly received, sum(packetBytes)"
scalar NetworkWithShapingAndPolicing.R1.ppp[0].ppp packetDropInterfaceDown:count 0
attr interpolationmode none
attr source packetDropReasonIsInterfaceDown(packetDropped)
attr title "packet drop: interface down, count"
scalar NetworkWithShapingAndPolicing.R1.ppp[0].ppp packetDropInterfaceDown:sum(packetBytes) 0
attr interpolationmode none
attr source packetDropReasonIsInterfaceDown(packetDropped)
attr title "packet drop: interface down, sum(packetBytes)"
scalar NetworkWithShapingAndPolicing.R1.ppp[1].ppp.queue packetPopped:count 4581
attr interpolationmode none
attr title "packet popped, count"
scalar NetworkWithShapingAndPolicing.R1.ppp[1].ppp.queue packetPopped:sum(packetBytes) 1863674
attr interpolationmode none
attr title "packet popped, sum(packetBytes)"
statistic NetworkWithShapingAndPolicing.R1.ppp[1].ppp.queue queueingTime:histogram
field count 4581
field mean 8.2093831307151
field stddev 3.721605033897
field min 0
field max 12.535886720361
field sum 37607.184121806
field sqrsum 372166.35857299
attr interpolationmode none
attr source queueingTime(packetPopped)
attr title "queueing times, histogram"
attr unit s
bin	-inf	0
bin	0	197
bin	0.2	37
bin	0.4	38
bin	0.6	36
bin	0.8	37
bin	1	38
bin	1.2	35
bin	1.4	41
bin	1.6	36
bin	1.8	35
bin	2	37
bin	2.2	33
bin	2.4	34
bin	2.6	34
bin	2.8	33
bin	3	32
bin	3.2	36
bin	3.4	35
bin	3.6	32
bin	3.8	32
bin	4	30
bin	4.2	30
bin	4.4	30
bin	4.6	30
bin	4.8	36
bin	5	32
bin	5.2	34
bin	5.4	36
bin	5.6	33
bin	5.8	37
bin	6	36
bin	6.2	34
bin	6.4	39
bin	6.6	36
bin	6.8	37
bin	7	35
bin	7.2	34
bin	7.4	38
bin	7.6	35
bin	7.8	34
bin	8	34
bin	8.2	37
bin	8.4	41
bin	8.6	68
bin	8.8	65
bin	9	61
bin	9.2	58
bin	9.4	114
bin	9.6	139
bin	9.8	133
bin	10	134
bin	10.2	203
bin	10.4	257
bin	10.6	210
bin	10.8	302
bin	11	259
bin	11.2	296
bin	11.4	209
bin	11.6	208
bin	11.8	149
bin	12	20
bin	12.2	8
bin	12.4	22
bin	12.6	0
bin	12.8	0
bin	13	0
bin	13.2	0
bin	13.4	0
bin	13.6	0
bin	13.8	0
scalar NetworkWithShapingAndPolicing.R1.ppp[1].ppp.queue queueLength:max 101
attr interpolationmode sample-hold
attr source "count(packetPushed) - count(packetPopped) - count(packetRemoved) - count(packetDropped)"
attr title "queue length, max"
scalar NetworkWithShapingAndPolicing.R1.ppp[1].ppp.queue queueLength:timeavg 30.088359585836
attr interpolationmode sample-hold
attr source "count(packetPushed) - count(packetPopped) - count(packetRemoved) - count(packetDropped)"
attr title "queue length, timeavg"
scalar NetworkWithShapingAndPolicing.R1.ppp[1].ppp.queue packetPushed:count 14092
attr interpolationmode none
attr title "packet pushed, count"
scalar NetworkWithShapingAndPolicing.R1.ppp[1].ppp.queue packetPushed:sum(packetBytes) 5454830
attr interpolationmode none
attr title "packet pushed, sum(packetBytes)"
scalar NetworkWithShapingAndPolicing.R1.ppp[1].ppp.queue packetDropQueueOverflow:count 9511
attr interpolationmode none
attr source packetDropReasonIsQueueOverflow(packetDropped)
attr title "packet drops: queue overflow, count"
scalar NetworkWithShapingAndPolicing.R1.ppp[1].ppp.queue packetDropQueueOverflow:sum(packetBytes) 3591156
attr interpolationmode none
attr source packetDropReasonIsQueueOverflow(packetDropped)
attr title "packet drops: queue overflow, sum(packetBytes)"
scalar NetworkWithShapingAndPolicing.R1.ppp[1].ppp.queue packetRemoved:count 0
attr interpolationmode none
attr title "packets removed, count"
scalar NetworkWithShapingAndPolicing.R1.ppp[1].ppp.queue packetRemoved:sum(packetBytes) 0
attr interpolationmode none
attr title "packets removed, sum(packetBytes)"
scalar NetworkWithShapingAndPolicing.R1.ppp[1].ppp transmissionState:timeavg 0.37914820000003
attr interpolationmode sample-hold
attr source transmissionStateChanged
attr title "tx state, timeavg"
scalar NetworkWithShapingAndPolicing.R1.ppp[1].ppp rxPkOk:count 273
attr interpolationmode none
attr source rxPkOk
attr title "packets received OK, count"
scalar NetworkWithShapingAndPolicing.R1.ppp[1].ppp rxPkOk:sum(packetBytes) 23051
attr interpolationmode none
attr source rxPkOk
attr title "packets received OK, sum(packetBytes)"
scalar NetworkWithShapingAndPolicing.R1.ppp[1].ppp txPk:count 4581
attr interpolationmode none
attr source packetSentToLower
attr title "packets transmitted, count"
scalar NetworkWithShapingAndPolicing.R1.ppp[1].ppp txPk:sum(packetBytes) 1895741
attr interpolationmode none
attr source packetSentToLower
attr title "packets transmitted, sum(packetBytes)"
scalar NetworkWithShapingAndPolicing.R1.ppp[1].ppp rcvdPkFromHl:count 14092
attr interpolationmode none
attr source packetReceivedFromUpper
attr title "packets received from higher layer, count"
scalar NetworkWithShapingAndPolicing.R1.ppp[1].ppp rcvdPkFromHl:sum(packetBytes) 5454830
attr interpolationmode none
attr source packetReceivedFromUpper
attr title "packets received from higher layer, sum(packetBytes)"
scalar NetworkWithShapingAndPolicing.R1.ppp[1].ppp passedUpPk:count 273
attr interpolationmode none
attr source packetSentToUpper
attr title "packets passed to higher layer, count"
scalar NetworkWithShapingAndPolicing.R1.ppp[1].ppp passedUpPk:sum(packetBytes) 21140
attr interpolationmode none
attr source packetSentToUpper
attr title "packets passed to higher layer, sum(packetBytes)"
scalar NetworkWithShapingAndPolicing.R1.ppp[1].ppp packetDropIncorrectlyReceived:count 0
attr interpolationmode none
attr source packetDropReasonIsIncorrectlyReceived(packetDropped)
attr title "packet drop: incorrectly received, count"
scalar NetworkWithShapingAndPolicing.R1.ppp[1].ppp packetDropIncorrectlyReceived:sum(packetBytes) 0
attr interpolationmode none
attr source packetDropReasonIsIncorrectlyReceived(packetDropped)
attr title "packet drop: incorrectly received, sum(packetBytes)"
scalar NetworkWithShapingAndPolicing.R1.ppp[1].ppp packetDropInterfaceDown:count 0
attr interpolationmode none
attr source packetDropReasonIsInterfaceDown(packetDropped)
attr title "packet drop: interface down, count"
scalar NetworkWithShapingAndPolicing.R1.ppp[1].ppp packetDropInterfaceDown:sum(packetBytes) 0
attr interpolationmode none
attr source packetDropReasonIsInterfaceDown(packetDropped)
attr title "packet drop: interface down, sum(packetBytes)"
scalar NetworkWithShapingAndPolicing.R1.eth[0].ingressTC.classifier packetPushed:count 0
attr interpolationmode none
attr title "packets pushed, count"
scalar NetworkWithShapingAndPolicing.R1.eth[0].ingressTC.classifier packetPushed:sum(packetBytes) 0
attr interpolationmode none
attr title "packets pushed, sum(packetBytes)"
scalar NetworkWithShapingAndPolicing.R1.eth[0].ingressTC.classifier packetDropped:count 0
attr interpolationmode none
attr title "packets dropped, count"
scalar NetworkWithShapingAndPolicing.R1.eth[0].ingressTC.classifier packetDropped:sum(packetBytes) 0
attr interpolationmode none
attr title "packets dropped, sum(packetBytes)"
scalar NetworkWithShapingAndPolicing.R1.eth[0].ingressTC.marker packetMarked:count 51835
attr interpolationmode none
attr source packetMarked
attr title "packets marked, count"
scalar NetworkWithShapingAndPolicing.R1.eth[0].ingressTC.marker packetMarked:sum(packetBytes) 20184330
attr interpolationmode none
attr source packetMarked
attr title "packets marked, sum(packetBytes)"
scalar NetworkWithShapingAndPolicing.R1.eth[0].mac.queue.classifier packetPushed:count 162
attr interpolationmode none
attr title "packets pushed, count"
scalar NetworkWithShapingAndPolicing.R1.eth[0].mac.queue.classifier packetPushed:sum(packetBytes) 12806
attr interpolationmode none
attr title "packets pushed, sum(packetBytes)"
scalar NetworkWithShapingAndPolicing.R1.eth[0].mac.queue.classifier packetDropped:count 0
attr interpolationmode none
attr title "packets dropped, count"
scalar NetworkWithShapingAndPolicing.R1.eth[0].mac.queue.classifier packetDropped:sum(packetBytes) 0
attr interpolationmode none
attr title "packets dropped, sum(packetBytes)"
scalar NetworkWithShapingAndPolicing.R1.eth[0].mac.queue.pauseQueue packetPopped:count 0
attr interpolationmode none
attr title "packet popped, count"
scalar NetworkWithShapingAndPolicing.R1.eth[0].mac.queue.pauseQueue packetPopped:sum(packetBytes) 0
attr interpolationmode none
attr title "packet popped, sum(packetBytes)"
statistic NetworkWithShapingAndPolicing.R1.eth[0].mac.queue.pauseQueue queueingTime:histogram
field count 0
field mean nan
field stddev nan
field min nan
field max nan
field sum 0
field sqrsum 0
attr interpolationmode none
attr source queueingTime(packetPopped)
attr title "queueing times, histogram"
attr unit s
bin	-inf	0
bin	0	0
bin	1	0
scalar NetworkWithShapingAndPolicing.R1.eth[0].mac.queue.pauseQueue queueLength:max nan
attr interpolationmode sample-hold
attr source "count(packetPushed) - count(packetPopped) - count(packetRemoved) - count(packetDropped)"
attr title "queue length, max"
scalar NetworkWithShapingAndPolicing.R1.eth[0].mac.queue.pauseQueue queueLength:timeavg nan
attr interpolationmode sample-hold
attr source "count(packetPushed) - count(packetPopped) - count(packetRemoved) - count(packetDropped)"
attr title "queue length, timeavg"
scalar NetworkWithShapingAndPolicing.R1.eth[0].mac.queue.pauseQueue packetPushed:count 0
attr interpolationmode none
attr title "packet pushed, count"
scalar NetworkWithShapingAndPolicing.R1.eth[0].mac.queue.pauseQueue packetPushed:sum(packetBytes) 0
attr interpolationmode none
attr title "packet pushed, sum(packetBytes)"
scalar NetworkWithShapingAndPolicing.R1.eth[0].mac.queue.pauseQueue packetDropQueueOverflow:count 0
attr interpolationmode none
attr source packetDropReasonIsQueueOverflow(packetDropped)
attr title "packet drops: queue overflow, count"
scalar NetworkWithShapingAndPolicing.R1.eth[0].mac.queue.pauseQueue packetDropQueueOverflow:sum(packetBytes) 0
attr interpolationmode none
attr source packetDropReasonIsQueueOverflow(packetDropped)
attr title "packet drops: queue overflow, sum(packetBytes)"
scalar NetworkWithShapingAndPolicing.R1.eth[0].mac.queue.pauseQueue packetRemoved:count 0
attr interpolationmode none
attr title "packets removed, count"
scalar NetworkWithShapingAndPolicing.R1.eth[0].mac.queue.pauseQueue packetRemoved:sum(packetBytes) 0
attr interpolationmode none
attr title "packets removed, sum(packetBytes)"
scalar NetworkWithShapingAndPolicing.R1.eth[0].mac.queue.dataQueue packetPopped:count 162
attr interpolationmode none
attr title "packet popped, count"
scalar NetworkWithShapingAndPolicing.R1.eth[0].mac.queue.dataQueue packetPopped:sum(packetBytes) 12806
attr interpolationmode none
attr title "packet popped, sum(packetBytes)"
statistic NetworkWithShapingAndPolicing.R1.eth[0].mac.queue.dataQueue queueingTime:histogram
field count 162
field mean 0
field stddev 0
field min 0
field max 0
field sum 0
field sqrsum 0
attr interpolationmode none
attr source queueingTime(packetPopped)
attr title "queueing times, histogram"
attr unit s
bin	-inf	0
bin	-0.5	0
bin	-0.48	0
bin	-0.46	0
bin	-0.44	0
bin	-0.42	0
bin	-0.4	0
bin	-0.38	0
bin	-0.36	0
bin	-0.34	0
bin	-0.32	0
bin	-0.3	0
bin	-0.28	0
bin	-0.26	0
bin	-0.24	0
bin	-0.22	0
bin	-0.2	0
bin	-0.18	0
bin	-0.16	0
bin	-0.14	0
bin	-0.12	0
bin	-0.1	0
bin	-0.08	0
bin	-0.06	0
bin	-0.04	0
bin	-0.02	0
bin	0	162
bin	0.02	0
bin	0.04	0
bin	0.06	0
bin	0.08	0
bin	0.1	0
bin	0.12	0
bin	0.14	0
bin	0.16	0
bin	0.18	0
bin	0.2	0
bin	0.22	0
bin	0.24	0
bin	0.26	0
bin	0.28	0
bin	0.3	0
bin	0.32	0
bin	0.34	0
bin	0.36	0
bin	0.38	0
bin	0.4	0
bin	0.42	0
bin	0.44	0
bin	0.46	0
bin	0.48	0
bin	0.5	0
scalar NetworkWithShapingAndPolicing.R1.eth[0].mac.queue.dataQueue queueLength:max 1
attr interpolationmode sample-hold
attr source "count(packetPushed) - count(packetPopped) - count(packetRemoved) - count(packetDropped)"
attr title "queue length, max"
scalar NetworkWithShapingAndPolicing.R1.eth[0].mac.queue.dataQueue queueLength:timeavg 0
attr interpolationmode sample-hold
attr source "count(packetPushed) - count(packetPopped) - count(packetRemoved) - count(packetDropped)"
attr title "queue length, timeavg"
scalar NetworkWithShapingAndPolicing.R1.eth[0].mac.queue.dataQueue packetPushed:count 162
attr interpolationmode none
attr title "packet pushed, count"
scalar NetworkWithShapingAndPolicing.R1.eth[0].mac.queue.dataQueue packetPushed:sum(packetBytes) 12806
attr interpolationmode none
attr title "packet pushed, sum(packetBytes)"
scalar NetworkWithShapingAndPolicing.R1.eth[0].mac.queue.dataQueue packetDropQueueOverflow:count 0
attr interpolationmode none
attr source packetDropReasonIsQueueOverflow(packetDropped)
attr title "packet drops: queue overflow, count"
scalar NetworkWithShapingAndPolicing.R1.eth[0].mac.queue.dataQueue packetDropQueueOverflow:sum(packetBytes) 0
attr interpolationmode none
attr source packetDropReasonIsQueueOverflow(packetDropped)
attr title "packet drops: queue overflow, sum(packetBytes)"
scalar NetworkWithShapingAndPolicing.R1.eth[0].mac.queue.dataQueue packetRemoved:count 0
attr interpolationmode none
attr title "packets removed, count"
scalar NetworkWithShapingAndPolicing.R1.eth[0].mac.queue.dataQueue packetRemoved:sum(packetBytes) 0
attr interpolationmode none
attr title "packets removed, sum(packetBytes)"
scalar NetworkWithShapingAndPolicing.R1.eth[0].mac.queue.scheduler packetPopped:count 162
attr interpolationmode none
attr title "packets popped, count"
scalar NetworkWithShapingAndPolicing.R1.eth[0].mac.queue.scheduler packetPopped:sum(packetBytes) 12806
attr interpolationmode none
attr title "packets popped, sum(packetBytes)"
scalar NetworkWithShapingAndPolicing.R1.eth[0].mac.queue packetPopped:count 162
attr interpolationmode none
attr source localSignal(packetPopped)
attr title "packets popped, count"
scalar NetworkWithShapingAndPolicing.R1.eth[0].mac.queue packetPopped:sum(packetBytes) 12806
attr interpolationmode none
attr source localSignal(packetPopped)
attr title "packets popped, sum(packetBytes)"
statistic NetworkWithShapingAndPolicing.R1.eth[0].mac.queue queueingTime:histogram
field count 486
field mean 0
field stddev 0
field min 0
field max 0
field sum 0
field sqrsum 0
attr interpolationmode none
attr source queueingTime(packetPopped)
attr title "queueing times, histogram"
attr unit s
bin	-inf	0
bin	-0.5	0
bin	-0.48	0
bin	-0.46	0
bin	-0.44	0
bin	-0.42	0
bin	-0.4	0
bin	-0.38	0
bin	-0.36	0
bin	-0.34	0
bin	-0.32	0
bin	-0.3	0
bin	-0.28	0
bin	-0.26	0
bin	-0.24	0
bin	-0.22	0
bin	-0.2	0
bin	-0.18	0
bin	-0.16	0
bin	-0.14	0
bin	-0.12	0
bin	-0.1	0
bin	-0.08	0
bin	-0.06	0
bin	-0.04	0
bin	-0.02	0
bin	0	486
bin	0.02	0
bin	0.04	0
bin	0.06	0
bin	0.08	0
bin	0.1	0
bin	0.12	0
bin	0.14	0
bin	0.16	0
bin	0.18	0
bin	0.2	0
bin	0.22	0
bin	0.24	0
bin	0.26	0
bin	0.28	0
bin	0.3	0
bin	0.32	0
bin	0.34	0
bin	0.36	0
bin	0.38	0
bin	0.4	0
bin	0.42	0
bin	0.44	0
bin	0.46	0
bin	0.48	0
bin	0.5	0
scalar NetworkWithShapingAndPolicing.R1.eth[0].mac.queue queueLength:max 1
attr interpolationmode sample-hold
attr source "count(localSignal(packetPushed)) - count(localSignal(packetPopped)) - count(localSignal(packetRemoved)) - count(packetDropped)"
attr title "queue length, max"
scalar NetworkWithShapingAndPolicing.R1.eth[0].mac.queue queueLength:timeavg 0
attr interpolationmode sample-hold
attr source "count(localSignal(packetPushed)) - count(localSignal(packetPopped)) - count(localSignal(packetRemoved)) - count(packetDropped)"
attr title "queue length, timeavg"
scalar NetworkWithShapingAndPolicing.R1.eth[0].mac.queue packetPushed:count 162
attr interpolationmode none
attr source localSignal(packetPushed)
attr title "packets pushed, count"
scalar NetworkWithShapingAndPolicing.R1.eth[0].mac.queue packetPushed:sum(packetBytes) 12806
attr interpolationmode none
attr source localSignal(packetPushed)
attr title "packets pushed, sum(packetBytes)"
scalar NetworkWithShapingAndPolicing.R1.eth[0].mac.queue packetDropQueueOverflow:count 0
attr interpolationmode none
attr source packetDropReasonIsQueueOverflow(packetDropped)
attr title "packets dropped: queue overflow, count"
scalar NetworkWithShapingAndPolicing.R1.eth[0].mac.queue packetDropQueueOverflow:sum(packetBytes) 0
attr interpolationmode none
attr source packetDropReasonIsQueueOverflow(packetDropped)
attr title "packets dropped: queue overflow, sum(packetBytes)"
scalar NetworkWithShapingAndPolicing.R1.eth[0].mac.queue packetRemoved:count 0
attr interpolationmode none
attr source localSignal(packetRemoved)
attr title "packets removed, count"
scalar NetworkWithShapingAndPolicing.R1.eth[0].mac.queue packetRemoved:sum(packetBytes) 0
attr interpolationmode none
attr source localSignal(packetRemoved)
attr title "packets removed, sum(packetBytes)"
scalar NetworkWithShapingAndPolicing.R1.eth[0].mac "simulated time" 1250
scalar NetworkWithShapingAndPolicing.R1.eth[0].mac full-duplex 1
scalar NetworkWithShapingAndPolicing.R1.eth[0].mac "frames/sec sent" 0.1296
scalar NetworkWithShapingAndPolicing.R1.eth[0].mac "frames/sec rcvd" 41.4768
scalar NetworkWithShapingAndPolicing.R1.eth[0].mac "bits/sec sent" 81.9584
scalar NetworkWithShapingAndPolicing.R1.eth[0].mac "bits/sec rcvd" 135155.6096
scalar NetworkWithShapingAndPolicing.R1.eth[0].mac "rx channel idle (%)" 100
scalar NetworkWithShapingAndPolicing.R1.eth[0].mac "rx channel utilization (%)" 0
scalar NetworkWithShapingAndPolicing.R1.eth[0].mac rxPausePkUnits:count 0
attr interpolationmode none
attr title "pause units received, count"
scalar NetworkWithShapingAndPolicing.R1.eth[0].mac rxPausePkUnits:sum 0
attr interpolationmode none
attr title "pause units received, sum"
scalar NetworkWithShapingAndPolicing.R1.eth[0].mac txPausePkUnits:count 0
attr interpolationmode none
attr title "pause units sent, count"
scalar NetworkWithShapingAndPolicing.R1.eth[0].mac txPausePkUnits:sum 0
attr interpolationmode none
attr title "pause units sent, sum"
scalar NetworkWithShapingAndPolicing.R1.eth[0].mac rxPkOk:count 51846
attr interpolationmode none
attr source rxPkOk
attr title "packets received OK, count"
scalar NetworkWithShapingAndPolicing.R1.eth[0].mac rxPkOk:sum(packetBytes) 21118064
attr interpolationmode none
attr source rxPkOk
attr title "packets received OK, sum(packetBytes)"
scalar NetworkWithShapingAndPolicing.R1.eth[0].mac txPk:count 162
attr interpolationmode none
attr source packetSentToLower
attr title "packets transmitted, count"
scalar NetworkWithShapingAndPolicing.R1.eth[0].mac txPk:sum(packetBytes) 12806
attr interpolationmode none
attr source packetSentToLower
attr title "packets transmitted, sum(packetBytes)"
scalar NetworkWithShapingAndPolicing.R1.eth[0].mac packetReceivedFromUpper:count 162
attr interpolationmode none
attr source packetReceivedFromUpper
attr title "packet bytes from higher layer, count"
scalar NetworkWithShapingAndPolicing.R1.eth[0].mac packetReceivedFromUpper:sum(packetBytes) 12508
attr interpolationmode none
attr source packetReceivedFromUpper
attr title "packet bytes from higher layer, sum(packetBytes)"
scalar NetworkWithShapingAndPolicing.R1.eth[0].mac passedUpPk:count 51846
attr interpolationmode none
attr source packetSentToUpper
attr title "packets passed to higher layer, count"
scalar NetworkWithShapingAndPolicing.R1.eth[0].mac passedUpPk:sum(packetBytes) 21118064
attr interpolationmode none
attr source packetSentToUpper
attr title "packets passed to higher layer, sum(packetBytes)"
scalar NetworkWithShapingAndPolicing.R1.eth[0].mac packetDropIncorrectlyReceived:count 0
attr interpolationmode none
attr source packetDropReasonIsIncorrectlyReceived(packetDropped)
attr title "packet drop: incorrectly received, count"
scalar NetworkWithShapingAndPolicing.R1.eth[0].mac packetDropIncorrectlyReceived:sum(packetBytes) 0
attr interpolationmode none
attr source packetDropReasonIsIncorrectlyReceived(packetDropped)
attr title "packet drop: incorrectly received, sum(packetBytes)"
scalar NetworkWithShapingAndPolicing.R1.eth[0].mac packetDropInterfaceDown:count 0
attr interpolationmode none
attr source packetDropReasonIsInterfaceDown(packetDropped)
attr title "packet drop: interface down, count"
scalar NetworkWithShapingAndPolicing.R1.eth[0].mac packetDropInterfaceDown:sum(packetBytes) 0
attr interpolationmode none
attr source packetDropReasonIsInterfaceDown(packetDropped)
attr title "packet drop: interface down, sum(packetBytes)"
scalar NetworkWithShapingAndPolicing.R1.eth[0].mac packetDropNotAddressedToUs:count 0
attr interpolationmode none
attr source packetDropReasonIsNotAddressedToUs(packetDropped)
attr title "packet drop: not addressed to us, count"
scalar NetworkWithShapingAndPolicing.R1.eth[0].mac packetDropNotAddressedToUs:sum(packetBytes) 0
attr interpolationmode none
attr source packetDropReasonIsNotAddressedToUs(packetDropped)
attr title "packet drop: not addressed to us, sum(packetBytes)"
scalar NetworkWithShapingAndPolicing.R1.eth[0].encap pauseSent:count 0
attr title "pause sent, count"
scalar NetworkWithShapingAndPolicing.R1.eth[0].encap pauseSent:sum 0
attr title "pause sent, sum"
scalar NetworkWithShapingAndPolicing.R1.eth[0].encap decapPk:count 51846
attr interpolationmode none
attr source decapPk
attr title "packets decapsulated, count"
scalar NetworkWithShapingAndPolicing.R1.eth[0].encap decapPk:sum(packetBytes) 20184836
attr interpolationmode none
attr source decapPk
attr title "packets decapsulated, sum(packetBytes)"
scalar NetworkWithShapingAndPolicing.R1.eth[0].encap encapPk:count 162
attr interpolationmode none
attr source encapPk
attr title "packets encapsulated, count"
scalar NetworkWithShapingAndPolicing.R1.eth[0].encap encapPk:sum(packetBytes) 9592
attr interpolationmode none
attr source encapPk
attr title "packets encapsulated, sum(packetBytes)"
scalar NetworkWithShapingAndPolicing.R1.ipv4.ip packetDropAddressResolutionFailed:count 0
attr interpolationmode none
attr source packetDropReasonIsAddressResolutionFailed(packetDropped)
attr title "packet drop: address resolution failed, count"
scalar NetworkWithShapingAndPolicing.R1.ipv4.ip packetDropAddressResolutionFailed:sum(packetBytes) 0
attr interpolationmode none
attr source packetDropReasonIsAddressResolutionFailed(packetDropped)
attr title "packet drop: address resolution failed, sum(packetBytes)"
scalar NetworkWithShapingAndPolicing.R1.ipv4.ip packetDropHopLimitReached:count 0
attr interpolationmode none
attr source packetDropReasonIsHopLimitReached(packetDropped)
attr title "packet drop: hop limit reached, count"
scalar NetworkWithShapingAndPolicing.R1.ipv4.ip packetDropHopLimitReached:sum(packetBytes) 0
attr interpolationmode none
attr source packetDropReasonIsHopLimitReached(packetDropped)
attr title "packet drop: hop limit reached, sum(packetBytes)"
scalar NetworkWithShapingAndPolicing.R1.ipv4.ip packetDropForwardingDisabled:count 0
attr interpolationmode none
attr source packetDropReasonIsForwardingDisabled(packetDropped)
attr title "packet drop: forwarding disabled, count"
scalar NetworkWithShapingAndPolicing.R1.ipv4.ip packetDropForwardingDisabled:sum(packetBytes) 0
attr interpolationmode none
attr source packetDropReasonIsForwardingDisabled(packetDropped)
attr title "packet drop: forwarding disabled, sum(packetBytes)"
scalar NetworkWithShapingAndPolicing.R1.ipv4.ip packetDropNoInterfaceFound:count 0
attr interpolationmode none
attr source packetDropReasonIsNoInterfaceFound(packetDropped)
attr title "packet drop: no interface found, count"
scalar NetworkWithShapingAndPolicing.R1.ipv4.ip packetDropNoInterfaceFound:sum(packetBytes) 0
attr interpolationmode none
attr source packetDropReasonIsNoInterfaceFound(packetDropped)
attr title "packet drop: no interface found, sum(packetBytes)"
scalar NetworkWithShapingAndPolicing.R1.ipv4.ip packetDropNoRouteFound:count 0
attr interpolationmode none
attr source packetDropReasonIsNoRouteFound(packetDropped)
attr title "packet drop: no route found, count"
scalar NetworkWithShapingAndPolicing.R1.ipv4.ip packetDropNoRouteFound:sum(packetBytes) 0
attr interpolationmode none
attr source packetDropReasonIsNoRouteFound(packetDropped)
attr title "packet drop: no route found, sum(packetBytes)"
scalar NetworkWithShapingAndPolicing.R1.ipv4.ip packetDropUndefined:count 0
attr interpolationmode none
attr source packetDropReasonIsUndefined(packetDropped)
attr title "packet drop: undefined, count"
scalar NetworkWithShapingAndPolicing.R1.ipv4.ip packetDropUndefined:sum(packetBytes) 0
attr interpolationmode none
attr source packetDropReasonIsUndefined(packetDropped)
attr title "packet drop: undefined, sum(packetBytes)"
scalar NetworkWithShapingAndPolicing.R1.ipv4.arp arpResolutionFailed:count 0
attr title "ARP failed resolutions, count"
scalar NetworkWithShapingAndPolicing.R1.ipv4.arp arpResolutionCompleted:count 11
attr title "ARP completed resolutions, count"
scalar NetworkWithShapingAndPolicing.R1.ipv4.arp arpResolutionInitiated:count 0
attr title "ARP initiated resolutions, count"
scalar NetworkWithShapingAndPolicing.R1.ipv4.arp arpReplySent:count 11
attr source arpReplySent
attr title "ARP replies sent, count"
scalar NetworkWithShapingAndPolicing.R1.ipv4.arp arpReplySent:sum(packetBytes) 308
attr source arpReplySent
attr title "ARP replies sent, sum(packetBytes)"
scalar NetworkWithShapingAndPolicing.R1.ipv4.arp arpRequestSent:count 0
attr source arpRequestSent
attr title "ARP request sent, count"
scalar NetworkWithShapingAndPolicing.R1.ipv4.arp arpRequestSent:sum(packetBytes) 0
attr source arpRequestSent
attr title "ARP request sent, sum(packetBytes)"
scalar NetworkWithShapingAndPolicing.R2.lo[0].lo rcvdPkFromHl:count 0
attr interpolationmode none
attr source packetReceivedFromUpper
attr title "packets received from higher layer, count"
scalar NetworkWithShapingAndPolicing.R2.lo[0].lo rcvdPkFromHl:sum(packetBytes) 0
attr interpolationmode none
attr source packetReceivedFromUpper
attr title "packets received from higher layer, sum(packetBytes)"
scalar NetworkWithShapingAndPolicing.R2.lo[0].lo passedUpPk:count 0
attr interpolationmode none
attr source packetSentToUpper
attr title "packets passed to higher layer, count"
scalar NetworkWithShapingAndPolicing.R2.lo[0].lo passedUpPk:sum(packetBytes) 0
attr interpolationmode none
attr source packetSentToUpper
attr title "packets passed to higher layer, sum(packetBytes)"
scalar NetworkWithShapingAndPolicing.R2.ppp[0].ppp.queue packetPopped:count 273
attr interpolationmode none
attr title "packet popped, count"
scalar NetworkWithShapingAndPolicing.R2.ppp[0].ppp.queue packetPopped:sum(packetBytes) 21140
attr interpolationmode none
attr title "packet popped, sum(packetBytes)"
statistic NetworkWithShapingAndPolicing.R2.ppp[0].ppp.queue queueingTime:histogram
field count 273
field mean 0.0016559398711795
field stddev 0.011832198173718
field min 0
field max 0.08975
field sum 0.452071584832
field sqrsum 0.038828851867172
attr interpolationmode none
attr source queueingTime(packetPopped)
attr title "queueing times, histogram"
attr unit s
bin	-inf	0
bin	0	264
bin	0.002	4
bin	0.004	0
bin	0.006	0
bin	0.008	0
bin	0.01	0
bin	0.012	0
bin	0.014	0
bin	0.016	0
bin	0.018	0
bin	0.02	0
bin	0.022	0
bin	0.024	0
bin	0.026	0
bin	0.028	0
bin	0.03	0
bin	0.032	0
bin	0.034	0
bin	0.036	0
bin	0.038	0
bin	0.04	0
bin	0.042	0
bin	0.044	0
bin	0.046	0
bin	0.048	0
bin	0.05	0
bin	0.052	0
bin	0.054	0
bin	0.056	0
bin	0.058	0
bin	0.06	0
bin	0.062	0
bin	0.064	0
bin	0.066	0
bin	0.068	0
bin	0.07	0
bin	0.072	0
bin	0.074	0
bin	0.076	0
bin	0.078	0
bin	0.08	1
bin	0.082	0
bin	0.084	0
bin	0.086	0
bin	0.088	4
bin	0.09	0
bin	0.092	0
bin	0.094	0
bin	0.096	0
bin	0.098	0
bin	0.1	0
bin	0.102	0
scalar NetworkWithShapingAndPolicing.R2.ppp[0].ppp.queue queueLength:max 1
attr interpolationmode sample-hold
attr source "count(packetPushed) - count(packetPopped) - count(packetRemoved) - count(packetDropped)"
attr title "queue length, max"
scalar NetworkWithShapingAndPolicing.R2.ppp[0].ppp.queue queueLength:timeavg 0.00036168403539143
attr interpolationmode sample-hold
attr source "count(packetPushed) - count(packetPopped) - count(packetRemoved) - count(packetDropped)"
attr title "queue length, timeavg"
scalar NetworkWithShapingAndPolicing.R2.ppp[0].ppp.queue packetPushed:count 273
attr interpolationmode none
attr title "packet pushed, count"
scalar NetworkWithShapingAndPolicing.R2.ppp[0].ppp.queue packetPushed:sum(packetBytes) 21140
attr interpolationmode none
attr title "packet pushed, sum(packetBytes)"
scalar NetworkWithShapingAndPolicing.R2.ppp[0].ppp.queue packetDropQueueOverflow:count 0
attr interpolationmode none
attr source packetDropReasonIsQueueOverflow(packetDropped)
attr title "packet drops: queue overflow, count"
scalar NetworkWithShapingAndPolicing.R2.ppp[0].ppp.queue packetDropQueueOverflow:sum(packetBytes) 0
attr interpolationmode none
attr source packetDropReasonIsQueueOverflow(packetDropped)
attr title "packet drops: queue overflow, sum(packetBytes)"
scalar NetworkWithShapingAndPolicing.R2.ppp[0].ppp.queue packetRemoved:count 0
attr interpolationmode none
attr title "packets removed, count"
scalar NetworkWithShapingAndPolicing.R2.ppp[0].ppp.queue packetRemoved:sum(packetBytes) 0
attr interpolationmode none
attr title "packets removed, sum(packetBytes)"
scalar NetworkWithShapingAndPolicing.R2.ppp[0].ppp transmissionState:timeavg 0.0046102
attr interpolationmode sample-hold
attr source transmissionStateChanged
attr title "tx state, timeavg"
scalar NetworkWithShapingAndPolicing.R2.ppp[0].ppp rxPkOk:count 4581
attr interpolationmode none
attr source rxPkOk
attr title "packets received OK, count"
scalar NetworkWithShapingAndPolicing.R2.ppp[0].ppp rxPkOk:sum(packetBytes) 1895741
attr interpolationmode none
attr source rxPkOk
attr title "packets received OK, sum(packetBytes)"
scalar NetworkWithShapingAndPolicing.R2.ppp[0].ppp txPk:count 273
attr interpolationmode none
attr source packetSentToLower
attr title "packets transmitted, count"
scalar NetworkWithShapingAndPolicing.R2.ppp[0].ppp txPk:sum(packetBytes) 23051
attr interpolationmode none
attr source packetSentToLower
attr title "packets transmitted, sum(packetBytes)"
scalar NetworkWithShapingAndPolicing.R2.ppp[0].ppp rcvdPkFromHl:count 273
attr interpolationmode none
attr source packetReceivedFromUpper
attr title "packets received from higher layer, count"
scalar NetworkWithShapingAndPolicing.R2.ppp[0].ppp rcvdPkFromHl:sum(packetBytes) 21140
attr interpolationmode none
attr source packetReceivedFromUpper
attr title "packets received from higher layer, sum(packetBytes)"
scalar NetworkWithShapingAndPolicing.R2.ppp[0].ppp passedUpPk:count 4581
attr interpolationmode none
attr source packetSentToUpper
attr title "packets passed to higher layer, count"
scalar NetworkWithShapingAndPolicing.R2.ppp[0].ppp passedUpPk:sum(packetBytes) 1863674
attr interpolationmode none
attr source packetSentToUpper
attr title "packets passed to higher layer, sum(packetBytes)"
scalar NetworkWithShapingAndPolicing.R2.ppp[0].ppp packetDropIncorrectlyReceived:count 0
attr interpolationmode none
attr source packetDropReasonIsIncorrectlyReceived(packetDropped)
attr title "packet drop: incorrectly received, count"
scalar NetworkWithShapingAndPolicing.R2.ppp[0].ppp packetDropIncorrectlyReceived:sum(packetBytes) 0
attr interpolationmode none
attr source packetDropReasonIsIncorrectlyReceived(packetDropped)
attr title "packet drop: incorrectly received, sum(packetBytes)"
scalar NetworkWithShapingAndPolicing.R2.ppp[0].ppp packetDropInterfaceDown:count 0
attr interpolationmode none
attr source packetDropReasonIsInterfaceDown(packetDropped)
attr title "packet drop: interface down, count"
scalar NetworkWithShapingAndPolicing.R2.ppp[0].ppp packetDropInterfaceDown:sum(packetBytes) 0
attr interpolationmode none
attr source packetDropReasonIsInterfaceDown(packetDropped)
attr title "packet drop: interface down, sum(packetBytes)"
scalar NetworkWithShapingAndPolicing.R2.ppp[1].ppp.queue packetPopped:count 322
attr interpolationmode none
attr title "packet popped, count"
scalar NetworkWithShapingAndPolicing.R2.ppp[1].ppp.queue packetPopped:sum(packetBytes) 57720
attr interpolationmode none
attr title "packet popped, sum(packetBytes)"
statistic NetworkWithShapingAndPolicing.R2.ppp[1].ppp.queue queueingTime:histogram
field count 322
field mean 0.020631008825447
field stddev 0.039998707763138
field min 0
field max 0.213
field sum 6.643184841794
field sqrsum 0.65062242099355
attr interpolationmode none
attr source queueingTime(packetPopped)
attr title "queueing times, histogram"
attr unit s
bin	-inf	0
bin	0	212
bin	0.005	0
bin	0.01	2
bin	0.015	51
bin	0.02	0
bin	0.025	0
bin	0.03	0
bin	0.035	6
bin	0.04	0
bin	0.045	0
bin	0.05	1
bin	0.055	0
bin	0.06	0
bin	0.065	0
bin	0.07	1
bin	0.075	0
bin	0.08	0
bin	0.085	1
bin	0.09	0
bin	0.095	39
bin	0.1	0
bin	0.105	1
bin	0.11	0
bin	0.115	0
bin	0.12	2
bin	0.125	0
bin	0.13	0
bin	0.135	1
bin	0.14	1
bin	0.145	0
bin	0.15	0
bin	0.155	1
bin	0.16	0
bin	0.165	0
bin	0.17	0
bin	0.175	1
bin	0.18	0
bin	0.185	0
bin	0.19	0
bin	0.195	1
bin	0.2	0
bin	0.205	0
bin	0.21	1
bin	0.215	0
bin	0.22	0
bin	0.225	0
bin	0.23	0
bin	0.235	0
bin	0.24	0
bin	0.245	0
bin	0.25	0
bin	0.255	0
bin	0.26	0
bin	0.265	0
bin	0.27	0
scalar NetworkWithShapingAndPolicing.R2.ppp[1].ppp.queue queueLength:max 12
attr interpolationmode sample-hold
attr source "count(packetPushed) - count(packetPopped) - count(packetRemoved) - count(packetDropped)"
attr title "queue length, max"
scalar NetworkWithShapingAndPolicing.R2.ppp[1].ppp.queue queueLength:timeavg 0.0053149272674972
attr interpolationmode sample-hold
attr source "count(packetPushed) - count(packetPopped) - count(packetRemoved) - count(packetDropped)"
attr title "queue length, timeavg"
scalar NetworkWithShapingAndPolicing.R2.ppp[1].ppp.queue packetPushed:count 322
attr interpolationmode none
attr title "packet pushed, count"
scalar NetworkWithShapingAndPolicing.R2.ppp[1].ppp.queue packetPushed:sum(packetBytes) 57720
attr interpolationmode none
attr title "packet pushed, sum(packetBytes)"
scalar NetworkWithShapingAndPolicing.R2.ppp[1].ppp.queue packetDropQueueOverflow:count 0
attr interpolationmode none
attr source packetDropReasonIsQueueOverflow(packetDropped)
attr title "packet drops: queue overflow, count"
scalar NetworkWithShapingAndPolicing.R2.ppp[1].ppp.queue packetDropQueueOverflow:sum(packetBytes) 0
attr interpolationmode none
attr source packetDropReasonIsQueueOverflow(packetDropped)
attr title "packet drops: queue overflow, sum(packetBytes)"
scalar NetworkWithShapingAndPolicing.R2.ppp[1].ppp.queue packetRemoved:count 0
attr interpolationmode none
attr title "packets removed, count"
scalar NetworkWithShapingAndPolicing.R2.ppp[1].ppp.queue packetRemoved:sum(packetBytes) 0
attr interpolationmode none
attr title "packets removed, sum(packetBytes)"
scalar NetworkWithShapingAndPolicing.R2.ppp[1].ppp transmissionState:timeavg 0.0119948
attr interpolationmode sample-hold
attr source transmissionStateChanged
attr title "tx state, timeavg"
scalar NetworkWithShapingAndPolicing.R2.ppp[1].ppp rxPkOk:count 215
attr interpolationmode none
attr source rxPkOk
attr title "packets received OK, count"
scalar NetworkWithShapingAndPolicing.R2.ppp[1].ppp rxPkOk:sum(packetBytes) 18325
attr interpolationmode none
attr source rxPkOk
attr title "packets received OK, sum(packetBytes)"
scalar NetworkWithShapingAndPolicing.R2.ppp[1].ppp txPk:count 322
attr interpolationmode none
attr source packetSentToLower
attr title "packets transmitted, count"
scalar NetworkWithShapingAndPolicing.R2.ppp[1].ppp txPk:sum(packetBytes) 59974
attr interpolationmode none
attr source packetSentToLower
attr title "packets transmitted, sum(packetBytes)"
scalar NetworkWithShapingAndPolicing.R2.ppp[1].ppp rcvdPkFromHl:count 322
attr interpolationmode none
attr source packetReceivedFromUpper
attr title "packets received from higher layer, count"
scalar NetworkWithShapingAndPolicing.R2.ppp[1].ppp rcvdPkFromHl:sum(packetBytes) 57720
attr interpolationmode none
attr source packetReceivedFromUpper
attr title "packets received from higher layer, sum(packetBytes)"
scalar NetworkWithShapingAndPolicing.R2.ppp[1].ppp passedUpPk:count 215
attr interpolationmode none
attr source packetSentToUpper
attr title "packets passed to higher layer, count"
scalar NetworkWithShapingAndPolicing.R2.ppp[1].ppp passedUpPk:sum(packetBytes) 16820
attr interpolationmode none
attr source packetSentToUpper
attr title "packets passed to higher layer, sum(packetBytes)"
scalar NetworkWithShapingAndPolicing.R2.ppp[1].ppp packetDropIncorrectlyReceived:count 0
attr interpolationmode none
attr source packetDropReasonIsIncorrectlyReceived(packetDropped)
attr title "packet drop: incorrectly received, count"
scalar NetworkWithShapingAndPolicing.R2.ppp[1].ppp packetDropIncorrectlyReceived:sum(packetBytes) 0
attr interpolationmode none
attr source packetDropReasonIsIncorrectlyReceived(packetDropped)
attr title "packet drop: incorrectly received, sum(packetBytes)"
scalar NetworkWithShapingAndPolicing.R2.ppp[1].ppp packetDropInterfaceDown:count 0
attr interpolationmode none
attr source packetDropReasonIsInterfaceDown(packetDropped)
attr title "packet drop: interface down, count"
scalar NetworkWithShapingAndPolicing.R2.ppp[1].ppp packetDropInterfaceDown:sum(packetBytes) 0
attr interpolationmode none
attr source packetDropReasonIsInterfaceDown(packetDropped)
attr title "packet drop: interface down, sum(packetBytes)"
scalar NetworkWithShapingAndPolicing.R2.ppp[2].ppp.queue packetPopped:count 3737
attr interpolationmode none
attr title "packet popped, count"
scalar NetworkWithShapingAndPolicing.R2.ppp[2].ppp.queue packetPopped:sum(packetBytes) 1501982
attr interpolationmode none
attr title "packet popped, sum(packetBytes)"
statistic NetworkWithShapingAndPolicing.R2.ppp[2].ppp.queue queueingTime:histogram
field count 3737
field mean 12.926836208725
field stddev 7.7230810780252
field min 0
field max 24.778
field sum 48307.586912004
field sqrsum 847301.64992805
attr interpolationmode none
attr source queueingTime(packetPopped)
attr title "queueing times, histogram"
attr unit s
bin	-inf	0
bin	0	175
bin	0.5	78
bin	1	80
bin	1.5	70
bin	2	67
bin	2.5	62
bin	3	60
bin	3.5	65
bin	4	68
bin	4.5	59
bin	5	68
bin	5.5	62
bin	6	59
bin	6.5	61
bin	7	64
bin	7.5	65
bin	8	69
bin	8.5	75
bin	9	71
bin	9.5	72
bin	10	72
bin	10.5	66
bin	11	60
bin	11.5	62
bin	12	68
bin	12.5	70
bin	13	68
bin	13.5	71
bin	14	59
bin	14.5	67
bin	15	62
bin	15.5	68
bin	16	68
bin	16.5	58
bin	17	61
bin	17.5	66
bin	18	60
bin	18.5	55
bin	19	77
bin	19.5	55
bin	20	65
bin	20.5	90
bin	21	94
bin	21.5	87
bin	22	121
bin	22.5	151
bin	23	136
bin	23.5	174
bin	24	64
bin	24.5	12
bin	25	0
scalar NetworkWithShapingAndPolicing.R2.ppp[2].ppp.queue queueLength:max 101
attr interpolationmode sample-hold
attr source "count(packetPushed) - count(packetPopped) - count(packetRemoved) - count(packetDropped)"
attr title "queue length, max"
scalar NetworkWithShapingAndPolicing.R2.ppp[2].ppp.queue queueLength:timeavg 38.649063846221
attr interpolationmode sample-hold
attr source "count(packetPushed) - count(packetPopped) - count(packetRemoved) - count(packetDropped)"
attr title "queue length, timeavg"
scalar NetworkWithShapingAndPolicing.R2.ppp[2].ppp.queue packetPushed:count 4566
attr interpolationmode none
attr title "packet pushed, count"
scalar NetworkWithShapingAndPolicing.R2.ppp[2].ppp.queue packetPushed:sum(packetBytes) 1830546
attr interpolationmode none
attr title "packet pushed, sum(packetBytes)"
scalar NetworkWithShapingAndPolicing.R2.ppp[2].ppp.queue packetDropQueueOverflow:count 829
attr interpolationmode none
attr source packetDropReasonIsQueueOverflow(packetDropped)
attr title "packet drops: queue overflow, count"
scalar NetworkWithShapingAndPolicing.R2.ppp[2].ppp.queue packetDropQueueOverflow:sum(packetBytes) 328564
attr interpolationmode none
attr source packetDropReasonIsQueueOverflow(packetDropped)
attr title "packet drops: queue overflow, sum(packetBytes)"
scalar NetworkWithShapingAndPolicing.R2.ppp[2].ppp.queue packetRemoved:count 0
attr interpolationmode none
attr title "packets removed, count"
scalar NetworkWithShapingAndPolicing.R2.ppp[2].ppp.queue packetRemoved:sum(packetBytes) 0
attr interpolationmode none
attr title "packets removed, sum(packetBytes)"
scalar NetworkWithShapingAndPolicing.R2.ppp[2].ppp transmissionState:timeavg 0.61125640000003
attr interpolationmode sample-hold
attr source transmissionStateChanged
attr title "tx state, timeavg"
scalar NetworkWithShapingAndPolicing.R2.ppp[2].ppp rxPkOk:count 310
attr interpolationmode none
attr source rxPkOk
attr title "packets received OK, count"
scalar NetworkWithShapingAndPolicing.R2.ppp[2].ppp rxPkOk:sum(packetBytes) 25466
attr interpolationmode none
attr source rxPkOk
attr title "packets received OK, sum(packetBytes)"
scalar NetworkWithShapingAndPolicing.R2.ppp[2].ppp txPk:count 3737
attr interpolationmode none
attr source packetSentToLower
attr title "packets transmitted, count"
scalar NetworkWithShapingAndPolicing.R2.ppp[2].ppp txPk:sum(packetBytes) 1528141
attr interpolationmode none
attr source packetSentToLower
attr title "packets transmitted, sum(packetBytes)"
scalar NetworkWithShapingAndPolicing.R2.ppp[2].ppp rcvdPkFromHl:count 4566
attr interpolationmode none
attr source packetReceivedFromUpper
attr title "packets received from higher layer, count"
scalar NetworkWithShapingAndPolicing.R2.ppp[2].ppp rcvdPkFromHl:sum(packetBytes) 1830546
attr interpolationmode none
[...]
attr interpolationmode none
attr title "packets removed, sum(packetBytes)"
scalar NetworkWithShapingAndPolicing.H2.eth[0].mac.queue.dataQueue packetPopped:count 37
attr interpolationmode none
attr title "packet popped, count"
scalar NetworkWithShapingAndPolicing.H2.eth[0].mac.queue.dataQueue packetPopped:sum(packetBytes) 2556
attr interpolationmode none
attr title "packet popped, sum(packetBytes)"
statistic NetworkWithShapingAndPolicing.H2.eth[0].mac.queue.dataQueue queueingTime:histogram
field count 37
field mean 3.6324324324324e-07
field stddev 1.540515884108e-06
field min 0
field max 6.72e-06
field sum 1.344e-05
field sqrsum 9.03168e-11
attr interpolationmode none
attr source queueingTime(packetPopped)
attr title "queueing times, histogram"
attr unit s
bin	-inf	0
bin	0	35
bin	1e-07	0
bin	2e-07	0
bin	3e-07	0
bin	4e-07	0
bin	5e-07	0
bin	6e-07	0
bin	7e-07	0
bin	8e-07	0
bin	9e-07	0
bin	1e-06	0
bin	1.1e-06	0
bin	1.2e-06	0
bin	1.3e-06	0
bin	1.4e-06	0
bin	1.5e-06	0
bin	1.6e-06	0
bin	1.7e-06	0
bin	1.8e-06	0
bin	1.9e-06	0
bin	2e-06	0
bin	2.1e-06	0
bin	2.2e-06	0
bin	2.3e-06	0
bin	2.4e-06	0
bin	2.5e-06	0
bin	2.6e-06	0
bin	2.7e-06	0
bin	2.8e-06	0
bin	2.9e-06	0
bin	3e-06	0
bin	3.1e-06	0
bin	3.2e-06	0
bin	3.3e-06	0
bin	3.4e-06	0
bin	3.5e-06	0
bin	3.6e-06	0
bin	3.7e-06	0
bin	3.8e-06	0
bin	3.9e-06	0
bin	4e-06	0
bin	4.1e-06	0
bin	4.2e-06	0
bin	4.3e-06	0
bin	4.4e-06	0
bin	4.5e-06	0
bin	4.6e-06	0
bin	4.7e-06	0
bin	4.8e-06	0
bin	4.9e-06	0
bin	5e-06	0
bin	5.1e-06	0
bin	5.2e-06	0
bin	5.3e-06	0
bin	5.4e-06	0
bin	5.5e-06	0
bin	5.6e-06	0
bin	5.7e-06	0
bin	5.8e-06	0
bin	5.9e-06	0
bin	6e-06	0
bin	6.1e-06	0
bin	6.2e-06	0
bin	6.3e-06	0
bin	6.4e-06	0
bin	6.5e-06	0
bin	6.6e-06	0
bin	6.7e-06	2
bin	6.8e-06	0
bin	6.9e-06	0
bin	7e-06	0
bin	7.1e-06	0
bin	7.2e-06	0
bin	7.3e-06	0
bin	7.4e-06	0
bin	7.5e-06	0
bin	7.6e-06	0
bin	7.7e-06	0
bin	7.8e-06	0
bin	7.9e-06	0
bin	8e-06	0
bin	8.1e-06	0
bin	8.2e-06	0
bin	8.3e-06	0
bin	8.4e-06	0
scalar NetworkWithShapingAndPolicing.H2.eth[0].mac.queue.dataQueue queueLength:max 1
attr interpolationmode sample-hold
attr source "count(packetPushed) - count(packetPopped) - count(packetRemoved) - count(packetDropped)"
attr title "queue length, max"
scalar NetworkWithShapingAndPolicing.H2.eth[0].mac.queue.dataQueue queueLength:timeavg 1.076170079718e-08
attr interpolationmode sample-hold
attr source "count(packetPushed) - count(packetPopped) - count(packetRemoved) - count(packetDropped)"
attr title "queue length, timeavg"
scalar NetworkWithShapingAndPolicing.H2.eth[0].mac.queue.dataQueue packetPushed:count 37
attr interpolationmode none
attr title "packet pushed, count"
scalar NetworkWithShapingAndPolicing.H2.eth[0].mac.queue.dataQueue packetPushed:sum(packetBytes) 2556
attr interpolationmode none
attr title "packet pushed, sum(packetBytes)"
scalar NetworkWithShapingAndPolicing.H2.eth[0].mac.queue.dataQueue packetDropQueueOverflow:count 0
attr interpolationmode none
attr source packetDropReasonIsQueueOverflow(packetDropped)
attr title "packet drops: queue overflow, count"
scalar NetworkWithShapingAndPolicing.H2.eth[0].mac.queue.dataQueue packetDropQueueOverflow:sum(packetBytes) 0
attr interpolationmode none
attr source packetDropReasonIsQueueOverflow(packetDropped)
attr title "packet drops: queue overflow, sum(packetBytes)"
scalar NetworkWithShapingAndPolicing.H2.eth[0].mac.queue.dataQueue packetRemoved:count 0
attr interpolationmode none
attr title "packets removed, count"
scalar NetworkWithShapingAndPolicing.H2.eth[0].mac.queue.dataQueue packetRemoved:sum(packetBytes) 0
attr interpolationmode none
attr title "packets removed, sum(packetBytes)"
scalar NetworkWithShapingAndPolicing.H2.eth[0].mac.queue.scheduler packetPopped:count 37
attr interpolationmode none
attr title "packets popped, count"
scalar NetworkWithShapingAndPolicing.H2.eth[0].mac.queue.scheduler packetPopped:sum(packetBytes) 2556
attr interpolationmode none
attr title "packets popped, sum(packetBytes)"
scalar NetworkWithShapingAndPolicing.H2.eth[0].mac.queue packetPopped:count 37
attr interpolationmode none
attr source localSignal(packetPopped)
attr title "packets popped, count"
scalar NetworkWithShapingAndPolicing.H2.eth[0].mac.queue packetPopped:sum(packetBytes) 2556
attr interpolationmode none
attr source localSignal(packetPopped)
attr title "packets popped, sum(packetBytes)"
statistic NetworkWithShapingAndPolicing.H2.eth[0].mac.queue queueingTime:histogram
field count 111
field mean 3.6324324324324e-07
field stddev 1.5264469512041e-06
field min 0
field max 6.72e-06
field sum 4.032e-05
field sqrsum 2.709504e-10
attr interpolationmode none
attr source queueingTime(packetPopped)
attr title "queueing times, histogram"
attr unit s
bin	-inf	0
bin	0	105
bin	1e-07	0
bin	2e-07	0
bin	3e-07	0
bin	4e-07	0
bin	5e-07	0
bin	6e-07	0
bin	7e-07	0
bin	8e-07	0
bin	9e-07	0
bin	1e-06	0
bin	1.1e-06	0
bin	1.2e-06	0
bin	1.3e-06	0
bin	1.4e-06	0
bin	1.5e-06	0
bin	1.6e-06	0
bin	1.7e-06	0
bin	1.8e-06	0
bin	1.9e-06	0
bin	2e-06	0
bin	2.1e-06	0
bin	2.2e-06	0
bin	2.3e-06	0
bin	2.4e-06	0
bin	2.5e-06	0
bin	2.6e-06	0
bin	2.7e-06	0
bin	2.8e-06	0
bin	2.9e-06	0
bin	3e-06	0
bin	3.1e-06	0
bin	3.2e-06	0
bin	3.3e-06	0
bin	3.4e-06	0
bin	3.5e-06	0
bin	3.6e-06	0
bin	3.7e-06	0
bin	3.8e-06	0
bin	3.9e-06	0
bin	4e-06	0
bin	4.1e-06	0
bin	4.2e-06	0
bin	4.3e-06	0
bin	4.4e-06	0
bin	4.5e-06	0
bin	4.6e-06	0
bin	4.7e-06	0
bin	4.8e-06	0
bin	4.9e-06	0
bin	5e-06	0
bin	5.1e-06	0
bin	5.2e-06	0
bin	5.3e-06	0
bin	5.4e-06	0
bin	5.5e-06	0
bin	5.6e-06	0
bin	5.7e-06	0
bin	5.8e-06	0
bin	5.9e-06	0
bin	6e-06	0
bin	6.1e-06	0
bin	6.2e-06	0
bin	6.3e-06	0
bin	6.4e-06	0
bin	6.5e-06	0
bin	6.6e-06	0
bin	6.7e-06	6
bin	6.8e-06	0
bin	6.9e-06	0
bin	7e-06	0
bin	7.1e-06	0
bin	7.2e-06	0
bin	7.3e-06	0
bin	7.4e-06	0
bin	7.5e-06	0
bin	7.6e-06	0
bin	7.7e-06	0
bin	7.8e-06	0
bin	7.9e-06	0
bin	8e-06	0
bin	8.1e-06	0
bin	8.2e-06	0
bin	8.3e-06	0
bin	8.4e-06	0
scalar NetworkWithShapingAndPolicing.H2.eth[0].mac.queue queueLength:max 1
attr interpolationmode sample-hold
attr source "count(localSignal(packetPushed)) - count(localSignal(packetPopped)) - count(localSignal(packetRemoved)) - count(packetDropped)"
attr title "queue length, max"
scalar NetworkWithShapingAndPolicing.H2.eth[0].mac.queue queueLength:timeavg 1.076170079718e-08
attr interpolationmode sample-hold
attr source "count(localSignal(packetPushed)) - count(localSignal(packetPopped)) - count(localSignal(packetRemoved)) - count(packetDropped)"
attr title "queue length, timeavg"
scalar NetworkWithShapingAndPolicing.H2.eth[0].mac.queue packetPushed:count 37
attr interpolationmode none
attr source localSignal(packetPushed)
attr title "packets pushed, count"
scalar NetworkWithShapingAndPolicing.H2.eth[0].mac.queue packetPushed:sum(packetBytes) 2556
attr interpolationmode none
attr source localSignal(packetPushed)
attr title "packets pushed, sum(packetBytes)"
scalar NetworkWithShapingAndPolicing.H2.eth[0].mac.queue packetDropQueueOverflow:count 0
attr interpolationmode none
attr source packetDropReasonIsQueueOverflow(packetDropped)
attr title "packets dropped: queue overflow, count"
scalar NetworkWithShapingAndPolicing.H2.eth[0].mac.queue packetDropQueueOverflow:sum(packetBytes) 0
attr interpolationmode none
attr source packetDropReasonIsQueueOverflow(packetDropped)
attr title "packets dropped: queue overflow, sum(packetBytes)"
scalar NetworkWithShapingAndPolicing.H2.eth[0].mac.queue packetRemoved:count 0
attr interpolationmode none
attr source localSignal(packetRemoved)
attr title "packets removed, count"
scalar NetworkWithShapingAndPolicing.H2.eth[0].mac.queue packetRemoved:sum(packetBytes) 0
attr interpolationmode none
attr source localSignal(packetRemoved)
attr title "packets removed, sum(packetBytes)"
scalar NetworkWithShapingAndPolicing.H2.eth[0].mac "simulated time" 1250
scalar NetworkWithShapingAndPolicing.H2.eth[0].mac full-duplex 1
scalar NetworkWithShapingAndPolicing.H2.eth[0].mac "frames/sec sent" 0.0296
scalar NetworkWithShapingAndPolicing.H2.eth[0].mac "frames/sec rcvd" 1.6008
scalar NetworkWithShapingAndPolicing.H2.eth[0].mac "bits/sec sent" 16.3584
scalar NetworkWithShapingAndPolicing.H2.eth[0].mac "bits/sec rcvd" 4161.5616
scalar NetworkWithShapingAndPolicing.H2.eth[0].mac "rx channel idle (%)" 100
scalar NetworkWithShapingAndPolicing.H2.eth[0].mac "rx channel utilization (%)" 0
scalar NetworkWithShapingAndPolicing.H2.eth[0].mac rxPausePkUnits:count 0
attr interpolationmode none
attr title "pause units received, count"
scalar NetworkWithShapingAndPolicing.H2.eth[0].mac rxPausePkUnits:sum 0
attr interpolationmode none
attr title "pause units received, sum"
scalar NetworkWithShapingAndPolicing.H2.eth[0].mac txPausePkUnits:count 0
attr interpolationmode none
attr title "pause units sent, count"
scalar NetworkWithShapingAndPolicing.H2.eth[0].mac txPausePkUnits:sum 0
attr interpolationmode none
attr title "pause units sent, sum"
scalar NetworkWithShapingAndPolicing.H2.eth[0].mac rxPkOk:count 2001
attr interpolationmode none
attr source rxPkOk
attr title "packets received OK, count"
scalar NetworkWithShapingAndPolicing.H2.eth[0].mac rxPkOk:sum(packetBytes) 650244
attr interpolationmode none
attr source rxPkOk
attr title "packets received OK, sum(packetBytes)"
scalar NetworkWithShapingAndPolicing.H2.eth[0].mac txPk:count 37
attr interpolationmode none
attr source packetSentToLower
attr title "packets transmitted, count"
scalar NetworkWithShapingAndPolicing.H2.eth[0].mac txPk:sum(packetBytes) 2556
attr interpolationmode none
attr source packetSentToLower
attr title "packets transmitted, sum(packetBytes)"
scalar NetworkWithShapingAndPolicing.H2.eth[0].mac packetReceivedFromUpper:count 37
attr interpolationmode none
attr source packetReceivedFromUpper
attr title "packet bytes from higher layer, count"
scalar NetworkWithShapingAndPolicing.H2.eth[0].mac packetReceivedFromUpper:sum(packetBytes) 2258
attr interpolationmode none
attr source packetReceivedFromUpper
attr title "packet bytes from higher layer, sum(packetBytes)"
scalar NetworkWithShapingAndPolicing.H2.eth[0].mac passedUpPk:count 2001
attr interpolationmode none
attr source packetSentToUpper
attr title "packets passed to higher layer, count"
scalar NetworkWithShapingAndPolicing.H2.eth[0].mac passedUpPk:sum(packetBytes) 650244
attr interpolationmode none
attr source packetSentToUpper
attr title "packets passed to higher layer, sum(packetBytes)"
scalar NetworkWithShapingAndPolicing.H2.eth[0].mac packetDropIncorrectlyReceived:count 0
attr interpolationmode none
attr source packetDropReasonIsIncorrectlyReceived(packetDropped)
attr title "packet drop: incorrectly received, count"
scalar NetworkWithShapingAndPolicing.H2.eth[0].mac packetDropIncorrectlyReceived:sum(packetBytes) 0
attr interpolationmode none
attr source packetDropReasonIsIncorrectlyReceived(packetDropped)
attr title "packet drop: incorrectly received, sum(packetBytes)"
scalar NetworkWithShapingAndPolicing.H2.eth[0].mac packetDropInterfaceDown:count 0
attr interpolationmode none
attr source packetDropReasonIsInterfaceDown(packetDropped)
attr title "packet drop: interface down, count"
scalar NetworkWithShapingAndPolicing.H2.eth[0].mac packetDropInterfaceDown:sum(packetBytes) 0
attr interpolationmode none
attr source packetDropReasonIsInterfaceDown(packetDropped)
attr title "packet drop: interface down, sum(packetBytes)"
scalar NetworkWithShapingAndPolicing.H2.eth[0].mac packetDropNotAddressedToUs:count 0
attr interpolationmode none
attr source packetDropReasonIsNotAddressedToUs(packetDropped)
attr title "packet drop: not addressed to us, count"
scalar NetworkWithShapingAndPolicing.H2.eth[0].mac packetDropNotAddressedToUs:sum(packetBytes) 0
attr interpolationmode none
attr source packetDropReasonIsNotAddressedToUs(packetDropped)
attr title "packet drop: not addressed to us, sum(packetBytes)"
scalar NetworkWithShapingAndPolicing.H2.eth[0].encap pauseSent:count 0
attr title "pause sent, count"
scalar NetworkWithShapingAndPolicing.H2.eth[0].encap pauseSent:sum 0
attr title "pause sent, sum"
scalar NetworkWithShapingAndPolicing.H2.eth[0].encap decapPk:count 2001
attr interpolationmode none
attr source decapPk
attr title "packets decapsulated, count"
scalar NetworkWithShapingAndPolicing.H2.eth[0].encap decapPk:sum(packetBytes) 614226
attr interpolationmode none
attr source decapPk
attr title "packets decapsulated, sum(packetBytes)"
scalar NetworkWithShapingAndPolicing.H2.eth[0].encap encapPk:count 37
attr interpolationmode none
attr source encapPk
attr title "packets encapsulated, count"
scalar NetworkWithShapingAndPolicing.H2.eth[0].encap encapPk:sum(packetBytes) 1592
attr interpolationmode none
attr source encapPk
attr title "packets encapsulated, sum(packetBytes)"
scalar NetworkWithShapingAndPolicing.H2.ipv4.ip packetDropAddressResolutionFailed:count 0
attr interpolationmode none
attr source packetDropReasonIsAddressResolutionFailed(packetDropped)
attr title "packet drop: address resolution failed, count"
scalar NetworkWithShapingAndPolicing.H2.ipv4.ip packetDropAddressResolutionFailed:sum(packetBytes) 0
attr interpolationmode none
attr source packetDropReasonIsAddressResolutionFailed(packetDropped)
attr title "packet drop: address resolution failed, sum(packetBytes)"
scalar NetworkWithShapingAndPolicing.H2.ipv4.ip packetDropHopLimitReached:count 0
attr interpolationmode none
attr source packetDropReasonIsHopLimitReached(packetDropped)
attr title "packet drop: hop limit reached, count"
scalar NetworkWithShapingAndPolicing.H2.ipv4.ip packetDropHopLimitReached:sum(packetBytes) 0
attr interpolationmode none
attr source packetDropReasonIsHopLimitReached(packetDropped)
attr title "packet drop: hop limit reached, sum(packetBytes)"
scalar NetworkWithShapingAndPolicing.H2.ipv4.ip packetDropForwardingDisabled:count 0
attr interpolationmode none
attr source packetDropReasonIsForwardingDisabled(packetDropped)
attr title "packet drop: forwarding disabled, count"
scalar NetworkWithShapingAndPolicing.H2.ipv4.ip packetDropForwardingDisabled:sum(packetBytes) 0
attr interpolationmode none
attr source packetDropReasonIsForwardingDisabled(packetDropped)
attr title "packet drop: forwarding disabled, sum(packetBytes)"
scalar NetworkWithShapingAndPolicing.H2.ipv4.ip packetDropNoInterfaceFound:count 0
attr interpolationmode none
attr source packetDropReasonIsNoInterfaceFound(packetDropped)
attr title "packet drop: no interface found, count"
scalar NetworkWithShapingAndPolicing.H2.ipv4.ip packetDropNoInterfaceFound:sum(packetBytes) 0
attr interpolationmode none
attr source packetDropReasonIsNoInterfaceFound(packetDropped)
attr title "packet drop: no interface found, sum(packetBytes)"
scalar NetworkWithShapingAndPolicing.H2.ipv4.ip packetDropNoRouteFound:count 0
attr interpolationmode none
attr source packetDropReasonIsNoRouteFound(packetDropped)
attr title "packet drop: no route found, count"
scalar NetworkWithShapingAndPolicing.H2.ipv4.ip packetDropNoRouteFound:sum(packetBytes) 0
attr interpolationmode none
attr source packetDropReasonIsNoRouteFound(packetDropped)
attr title "packet drop: no route found, sum(packetBytes)"
scalar NetworkWithShapingAndPolicing.H2.ipv4.ip packetDropUndefined:count 0
attr interpolationmode none
attr source packetDropReasonIsUndefined(packetDropped)
attr title "packet drop: undefined, count"
scalar NetworkWithShapingAndPolicing.H2.ipv4.ip packetDropUndefined:sum(packetBytes) 0
attr interpolationmode none
attr source packetDropReasonIsUndefined(packetDropped)
attr title "packet drop: undefined, sum(packetBytes)"
scalar NetworkWithShapingAndPolicing.H2.ipv4.arp arpResolutionFailed:count 0
attr title "ARP failed resolutions, count"
scalar NetworkWithShapingAndPolicing.H2.ipv4.arp arpResolutionCompleted:count 11
attr title "ARP completed resolutions, count"
scalar NetworkWithShapingAndPolicing.H2.ipv4.arp arpResolutionInitiated:count 0
attr title "ARP initiated resolutions, count"
scalar NetworkWithShapingAndPolicing.H2.ipv4.arp arpReplySent:count 11
attr source arpReplySent
attr title "ARP replies sent, count"
scalar NetworkWithShapingAndPolicing.H2.ipv4.arp arpReplySent:sum(packetBytes) 308
attr source arpReplySent
attr title "ARP replies sent, sum(packetBytes)"
scalar NetworkWithShapingAndPolicing.H2.ipv4.arp arpRequestSent:count 0
attr source arpRequestSent
attr title "ARP request sent, count"
scalar NetworkWithShapingAndPolicing.H2.ipv4.arp arpRequestSent:sum(packetBytes) 0
attr source arpRequestSent
attr title "ARP request sent, sum(packetBytes)"
scalar NetworkWithShapingAndPolicing.H2.udp packetReceived:count 1857
attr interpolationmode none
attr source packetReceived
attr title "packets received, count"
scalar NetworkWithShapingAndPolicing.H2.udp packetReceived:sum(packetBytes) 568124
attr interpolationmode none
attr source packetReceived
attr title "packets received, sum(packetBytes)"
scalar NetworkWithShapingAndPolicing.H2.udp packetSent:count 0
attr interpolationmode none
attr source packetSent
attr title "packets sent, count"
scalar NetworkWithShapingAndPolicing.H2.udp packetSent:sum(packetBytes) 0
attr interpolationmode none
attr source packetSent
attr title "packets sent, sum(packetBytes)"
scalar NetworkWithShapingAndPolicing.H2.udp passedUpPk:count 1857
attr interpolationmode none
attr source packetSentToUpper
attr title "packets passed up, count"
scalar NetworkWithShapingAndPolicing.H2.udp droppedPkWrongPort:count 0
attr interpolationmode none
attr source packetDropReasonIsNoPortFound(packetDropped)
attr title "packets dropped (wrong port), count"
scalar NetworkWithShapingAndPolicing.H2.udp droppedPkBadChecksum:count 0
attr interpolationmode none
attr source packetDropReasonIsIncorrectlyReceived(packetDropped)
attr title "packets dropped (checksum error), count"
scalar NetworkWithShapingAndPolicing.H2.app[0] "Total sent" 0
scalar NetworkWithShapingAndPolicing.H2.app[0] "Total received" 932
scalar NetworkWithShapingAndPolicing.H2.app[0] "Total deleted" 0
scalar NetworkWithShapingAndPolicing.H2.app[0] packetReceived:count 932
attr interpolationmode none
attr source packetReceived
attr title "packets received, count"
scalar NetworkWithShapingAndPolicing.H2.app[0] packetReceived:sum(packetBytes) 160304
attr interpolationmode none
attr source packetReceived
attr title "packets received, sum(packetBytes)"
scalar NetworkWithShapingAndPolicing.H2.app[0] packetSent:count 0
attr interpolationmode none
attr source packetSent
attr title "packets sent, count"
scalar NetworkWithShapingAndPolicing.H2.app[0] packetSent:sum(packetBytes) 0
attr interpolationmode none
attr source packetSent
attr title "packets sent, sum(packetBytes)"
scalar NetworkWithShapingAndPolicing.H2.app[0] outOfOrderPk:count 212
attr interpolationmode none
attr source outOfOrderPk
attr title "packets received out of order, count"
scalar NetworkWithShapingAndPolicing.H2.app[0] outOfOrderPk:sum(packetBytes) 36464
attr interpolationmode none
attr source outOfOrderPk
attr title "packets received out of order, sum(packetBytes)"
scalar NetworkWithShapingAndPolicing.H2.app[1] packetReceived:count 713
attr interpolationmode none
attr source packetReceived
attr title "packets received, count"
scalar NetworkWithShapingAndPolicing.H2.app[1] packetReceived:sum(packetBytes) 356500
attr interpolationmode none
attr source packetReceived
attr title "packets received, sum(packetBytes)"
scalar NetworkWithShapingAndPolicing.H2.app[2] packetReceived:count 1
attr interpolationmode none
attr source packetReceived
attr title "packets received, count"
scalar NetworkWithShapingAndPolicing.H2.app[2] packetReceived:sum(packetBytes) 50
attr interpolationmode none
attr source packetReceived
attr title "packets received, sum(packetBytes)"
scalar NetworkWithShapingAndPolicing.H2.app[2] packetSent:count 1
attr interpolationmode none
attr source packetSent
attr title "packets sent, count"
scalar NetworkWithShapingAndPolicing.H2.app[2] packetSent:sum(packetBytes) 100
attr interpolationmode none
attr source packetSent
attr title "packets sent, sum(packetBytes)"

