version 2
run Exp3RoundRobinWithPolicingAndShaping-0-20210404-00:58:48-71596
attr configname Exp3RoundRobinWithPolicingAndShaping
attr datetime 20210404-00:58:48
attr experiment Exp3RoundRobinWithPolicingAndShaping
attr inifile omnetpp.ini
attr iterationvars ""
attr iterationvarsf ""
attr measurement ""
attr network NetworkWithShapingAndPolicing
attr processid 71596
attr repetition 0
attr replication #0
attr resultdir results
attr runnumber 0
attr seedset 0
param **.R*.ppp[*].ppp.queue.typename "\"DSQueue1\""
param **.R*.ppp[*].ppp.queue.packetCapacity 100
param **.R*.ppp[*].ppp.queue.*.packetCapacity 100
param **.R*.ppp[*].ppp.queue.wrr.weights "\"10 40 5 1 1\""
param **.H?.numApps 3
param **.H1.app[0].typename "\"UdpBasicBurst\""
param **.H1.app[0].destAddresses "\"H2\""
param **.H1.app[0].chooseDestAddrMode "\"once\""
param **.H1.app[0].destPort 1000
param **.H1.app[0].startTime uniform(1s,2s)
param **.H1.app[0].stopTime 1200s
param **.H1.app[0].messageLength 172B
param **.H1.app[0].burstDuration exponential(0.352s)
param **.H1.app[0].sleepDuration exponential(0.650s)
param **.H1.app[0].sendInterval 20ms
param **.H2.app[0].typename "\"UdpBasicBurst\""
param **.H2.app[0].localPort 1000
param **.H2.app[0].delayLimit 0ms
param **.H2.app[0].destAddresses "\"\""
param **.H2.app[0].chooseDestAddrMode "\"once\""
param **.H2.app[0].destPort 0
param **.H2.app[0].messageLength 0B
param **.H2.app[0].burstDuration 0s
param **.H2.app[0].sleepDuration 0s
param **.H2.app[0].sendInterval 0ms
param **.H1.app[1].typename "\"UdpBasicApp\""
param **.H1.app[1].destPort 2000
param **.H1.app[1].startTime uniform(1s,2s)
param **.H1.app[1].stopTime 1200s
param **.H1.app[1].sendInterval 40ms
param **.H1.app[1].messageLength 500B
param **.H1.app[1].destAddresses "\"H2\""
param **.H2.app[1].typename "\"UdpSink\""
param **.H2.app[1].localPort 2000
param **.H1.app[2].typename "\"TcpBasicClientApp\""
param **.H1.app[2].connectAddress "\"H2\""
param **.H1.app[2].connectPort 3000
param **.H1.app[2].numRequestsPerSession 1
param **.H1.app[2].requestLength 50B
param **.H1.app[2].replyLength 100B
param **.H1.app[2].thinkTime 40ms
param **.H1.app[2].idleInterval 10s
param **.H1.app[2].stopTime 1200s
param **.H2.app[2].typename "\"TcpGenericServerApp\""
param **.H2.app[2].localPort 3000
param **.edgeDatarate 32kbps
param **.coreDatarate 16kbps
param **.R1.eth[?].ingressTC.typename "\"TC1\""
param **.R15.eth[?].ingressTC.typename "\"TC1\""
param **.ingressTC.numClasses 3
param **.ingressTC.classifier.filters "xmldoc(\"filters.xml\", \"//experiment[@id='default']\")"
param **.ingressTC.marker.dscps "\"AF11 AF21 AF31 AF41 BE\""
param **.R8.ppp[2].egressTC.typename "\"TrafficConditioner\""
param **.R8.ppp[2].egressTC.efMeter.cir "\"70%\""
param **.R8.ppp[2].egressTC.efMeter.cbs 50KiB
param **.R8.ppp[2].egressTC.defaultMeter.cir "\"30%\""
param **.R8.ppp[2].egressTC.defaultMeter.cbs 2KiB
param **.R8.ppp[2].egressTC.defaultMeter.ebs 4KiB
param **.R9.ppp[0].ingressTC.typename "\"TrafficConditioner\""
param **.R9.ppp[0].ingressTC.efMeter.cir "\"50%\""
param **.R9.ppp[0].ingressTC.efMeter.cbs 40KiB
param **.R9.ppp[0].ingressTC.defaultMeter.cir "\"25%\""
param **.R9.ppp[0].ingressTC.defaultMeter.cbs 2KiB
param **.R9.ppp[0].ingressTC.defaultMeter.ebs 4KiB
param **.queue.typename "\"EtherQosQueue\""
param **.queue.dataQueue.typename "\"DropTailQueue\""
param **.queue.packetCapacity 100
param **.queue.dataQueue.packetCapacity 100
param **.R*.hasOspf true
param **.R*.ospf.ospfConfig "xmldoc(\"OSPFConfig.xml\")"

scalar NetworkWithShapingAndPolicing.R1.pppg$o[0].channel packetsDiscarded:count 0
attr interpolationmode none
attr source constant1(messageDiscarded)
scalar NetworkWithShapingAndPolicing.R1.pppg$o[0].channel utilization:last 0.73032202621804
attr source timeavg(channelBusy)
scalar NetworkWithShapingAndPolicing.R1.pppg$o[0].channel packets:count 8604
attr interpolationmode none
attr source constant1(messageSent)
scalar NetworkWithShapingAndPolicing.R1.pppg$o[0].channel packetBytes:sum 3622770
attr interpolationmode none
attr source packetBytes(messageSent)
attr unit B
scalar NetworkWithShapingAndPolicing.R1.pppg$o[0].channel throughput:last 23370.658189588
attr source sumPerDuration(packetBits(messageSent))
attr unit bps
scalar NetworkWithShapingAndPolicing.R1.pppg$o[1].channel packetsDiscarded:count 0
attr interpolationmode none
attr source constant1(messageDiscarded)
scalar NetworkWithShapingAndPolicing.R1.pppg$o[1].channel utilization:last 0.47158218568603
attr source timeavg(channelBusy)
scalar NetworkWithShapingAndPolicing.R1.pppg$o[1].channel packets:count 5819
attr interpolationmode none
attr source constant1(messageSent)
scalar NetworkWithShapingAndPolicing.R1.pppg$o[1].channel packetBytes:sum 2352343
attr interpolationmode none
attr source packetBytes(messageSent)
attr unit B
scalar NetworkWithShapingAndPolicing.R1.pppg$o[1].channel throughput:last 15090.796333626
attr source sumPerDuration(packetBits(messageSent))
attr unit bps
scalar NetworkWithShapingAndPolicing.R1.ethg$o[0].channel packetsDiscarded:count 0
attr interpolationmode none
attr source constant1(messageDiscarded)
scalar NetworkWithShapingAndPolicing.R1.ethg$o[0].channel utilization:last 9.7539954133172e-07
attr source timeavg(channelBusy)
scalar NetworkWithShapingAndPolicing.R1.ethg$o[0].channel packets:count 167
attr interpolationmode none
attr source constant1(messageSent)
scalar NetworkWithShapingAndPolicing.R1.ethg$o[0].channel packetBytes:sum 15120
attr interpolationmode none
attr source packetBytes(messageSent)
attr unit B
scalar NetworkWithShapingAndPolicing.R1.ethg$o[0].channel throughput:last 97.539954699484
attr source sumPerDuration(packetBits(messageSent))
attr unit bps
scalar NetworkWithShapingAndPolicing.R2.pppg$o[0].channel packetsDiscarded:count 0
attr interpolationmode none
attr source constant1(messageDiscarded)
scalar NetworkWithShapingAndPolicing.R2.pppg$o[0].channel utilization:last 0.010438377923852
attr source timeavg(channelBusy)
scalar NetworkWithShapingAndPolicing.R2.pppg$o[0].channel packets:count 425
attr interpolationmode none
attr source constant1(messageSent)
scalar NetworkWithShapingAndPolicing.R2.pppg$o[0].channel packetBytes:sum 51779
attr interpolationmode none
attr source packetBytes(messageSent)
attr unit B
scalar NetworkWithShapingAndPolicing.R2.pppg$o[0].channel throughput:last 334.03314401451
attr source sumPerDuration(packetBits(messageSent))
attr unit bps
scalar NetworkWithShapingAndPolicing.R2.pppg$o[1].channel packetsDiscarded:count 0
attr interpolationmode none
attr source constant1(messageDiscarded)
scalar NetworkWithShapingAndPolicing.R2.pppg$o[1].channel utilization:last 0.012105599077826
attr source timeavg(channelBusy)
scalar NetworkWithShapingAndPolicing.R2.pppg$o[1].channel packets:count 359
attr interpolationmode none
attr source constant1(messageSent)
scalar NetworkWithShapingAndPolicing.R2.pppg$o[1].channel packetBytes:sum 60049
attr interpolationmode none
attr source packetBytes(messageSent)
attr unit B
scalar NetworkWithShapingAndPolicing.R2.pppg$o[1].channel throughput:last 387.38502761691
attr source sumPerDuration(packetBits(messageSent))
attr unit bps
scalar NetworkWithShapingAndPolicing.R2.pppg$o[2].channel packetsDiscarded:count 0
attr interpolationmode none
attr source constant1(messageDiscarded)
scalar NetworkWithShapingAndPolicing.R2.pppg$o[2].channel utilization:last 0.72055257961395
attr source timeavg(channelBusy)
scalar NetworkWithShapingAndPolicing.R2.pppg$o[2].channel packets:count 4174
attr interpolationmode none
attr source constant1(messageSent)
scalar NetworkWithShapingAndPolicing.R2.pppg$o[2].channel packetBytes:sum 1787164
attr interpolationmode none
attr source packetBytes(messageSent)
attr unit B
scalar NetworkWithShapingAndPolicing.R2.pppg$o[2].channel throughput:last 11529.189901069
attr source sumPerDuration(packetBits(messageSent))
attr unit bps
scalar NetworkWithShapingAndPolicing.R3.pppg$o[0].channel packetsDiscarded:count 0
attr interpolationmode none
attr source constant1(messageDiscarded)
scalar NetworkWithShapingAndPolicing.R3.pppg$o[0].channel utilization:last 0.0041459078521536
attr source timeavg(channelBusy)
scalar NetworkWithShapingAndPolicing.R3.pppg$o[0].channel packets:count 242
attr interpolationmode none
attr source constant1(messageSent)
scalar NetworkWithShapingAndPolicing.R3.pppg$o[0].channel packetBytes:sum 20566
attr interpolationmode none
attr source packetBytes(messageSent)
attr unit B
scalar NetworkWithShapingAndPolicing.R3.pppg$o[0].channel throughput:last 132.67105715962
attr source sumPerDuration(packetBits(messageSent))
attr unit bps
scalar NetworkWithShapingAndPolicing.R3.pppg$o[1].channel packetsDiscarded:count 0
attr interpolationmode none
attr source constant1(messageDiscarded)
scalar NetworkWithShapingAndPolicing.R3.pppg$o[1].channel utilization:last 0.012813528388364
attr source timeavg(channelBusy)
scalar NetworkWithShapingAndPolicing.R3.pppg$o[1].channel packets:count 411
attr interpolationmode none
attr source constant1(messageSent)
scalar NetworkWithShapingAndPolicing.R3.pppg$o[1].channel packetBytes:sum 63561
attr interpolationmode none
attr source packetBytes(messageSent)
attr unit B
scalar NetworkWithShapingAndPolicing.R3.pppg$o[1].channel throughput:last 410.03910804033
attr source sumPerDuration(packetBits(messageSent))
attr unit bps
scalar NetworkWithShapingAndPolicing.R4.pppg$o[0].channel packetsDiscarded:count 0
attr interpolationmode none
attr source constant1(messageDiscarded)
scalar NetworkWithShapingAndPolicing.R4.pppg$o[0].channel utilization:last 0.060057018598903
attr source timeavg(channelBusy)
scalar NetworkWithShapingAndPolicing.R4.pppg$o[0].channel packets:count 1143
attr interpolationmode none
attr source constant1(messageSent)
scalar NetworkWithShapingAndPolicing.R4.pppg$o[0].channel packetBytes:sum 297909
attr interpolationmode none
attr source packetBytes(messageSent)
attr unit B
scalar NetworkWithShapingAndPolicing.R4.pppg$o[0].channel throughput:last 1921.8536528974
attr source sumPerDuration(packetBits(messageSent))
attr unit bps
scalar NetworkWithShapingAndPolicing.R4.pppg$o[1].channel packetsDiscarded:count 0
attr interpolationmode none
attr source constant1(messageDiscarded)
scalar NetworkWithShapingAndPolicing.R4.pppg$o[1].channel utilization:last 0.68642024830122
attr source timeavg(channelBusy)
scalar NetworkWithShapingAndPolicing.R4.pppg$o[1].channel packets:count 7945
attr interpolationmode none
attr source constant1(messageSent)
scalar NetworkWithShapingAndPolicing.R4.pppg$o[1].channel packetBytes:sum 3404989
attr interpolationmode none
attr source packetBytes(messageSent)
attr unit B
scalar NetworkWithShapingAndPolicing.R4.pppg$o[1].channel throughput:last 21965.780055881
attr source sumPerDuration(packetBits(messageSent))
attr unit bps
scalar NetworkWithShapingAndPolicing.R5.pppg$o[0].channel packetsDiscarded:count 0
attr interpolationmode none
attr source constant1(messageDiscarded)
scalar NetworkWithShapingAndPolicing.R5.pppg$o[0].channel utilization:last 0.014936417831354
attr source timeavg(channelBusy)
scalar NetworkWithShapingAndPolicing.R5.pppg$o[0].channel packets:count 417
attr interpolationmode none
attr source constant1(messageSent)
scalar NetworkWithShapingAndPolicing.R5.pppg$o[0].channel packetBytes:sum 74091
attr interpolationmode none
attr source packetBytes(messageSent)
attr unit B
scalar NetworkWithShapingAndPolicing.R5.pppg$o[0].channel throughput:last 477.97259739042
attr source sumPerDuration(packetBits(messageSent))
attr unit bps
scalar NetworkWithShapingAndPolicing.R5.pppg$o[1].channel packetsDiscarded:count 0
attr interpolationmode none
attr source constant1(messageDiscarded)
scalar NetworkWithShapingAndPolicing.R5.pppg$o[1].channel utilization:last 0.95758187866093
attr source timeavg(channelBusy)
scalar NetworkWithShapingAndPolicing.R5.pppg$o[1].channel packets:count 5405
attr interpolationmode none
attr source constant1(messageSent)
scalar NetworkWithShapingAndPolicing.R5.pppg$o[1].channel packetBytes:sum 2375047
attr interpolationmode none
attr source packetBytes(messageSent)
attr unit B
scalar NetworkWithShapingAndPolicing.R5.pppg$o[1].channel throughput:last 15321.773371065
attr source sumPerDuration(packetBits(messageSent))
attr unit bps
scalar NetworkWithShapingAndPolicing.R6.pppg$o[0].channel packetsDiscarded:count 0
attr interpolationmode none
attr source constant1(messageDiscarded)
scalar NetworkWithShapingAndPolicing.R6.pppg$o[0].channel utilization:last 0.0058471669533291
attr source timeavg(channelBusy)
scalar NetworkWithShapingAndPolicing.R6.pppg$o[0].channel packets:count 315
attr interpolationmode none
attr source constant1(messageSent)
scalar NetworkWithShapingAndPolicing.R6.pppg$o[0].channel packetBytes:sum 29005
attr interpolationmode none
attr source packetBytes(messageSent)
attr unit B
scalar NetworkWithShapingAndPolicing.R6.pppg$o[0].channel throughput:last 187.11217152594
attr source sumPerDuration(packetBits(messageSent))
attr unit bps
scalar NetworkWithShapingAndPolicing.R6.pppg$o[1].channel packetsDiscarded:count 0
attr interpolationmode none
attr source constant1(messageDiscarded)
scalar NetworkWithShapingAndPolicing.R6.pppg$o[1].channel utilization:last 0.022426581677961
attr source timeavg(channelBusy)
scalar NetworkWithShapingAndPolicing.R6.pppg$o[1].channel packets:count 344
attr interpolationmode none
attr source constant1(messageSent)
scalar NetworkWithShapingAndPolicing.R6.pppg$o[1].channel packetBytes:sum 55624
attr interpolationmode none
attr source packetBytes(messageSent)
attr unit B
scalar NetworkWithShapingAndPolicing.R6.pppg$o[1].channel throughput:last 358.83615756163
attr source sumPerDuration(packetBits(messageSent))
attr unit bps
scalar NetworkWithShapingAndPolicing.R7.pppg$o[0].channel packetsDiscarded:count 0
attr interpolationmode none
attr source constant1(messageDiscarded)
scalar NetworkWithShapingAndPolicing.R7.pppg$o[0].channel utilization:last 0.36531879008371
attr source timeavg(channelBusy)
scalar NetworkWithShapingAndPolicing.R7.pppg$o[0].channel packets:count 4195
attr interpolationmode none
attr source constant1(messageSent)
scalar NetworkWithShapingAndPolicing.R7.pppg$o[0].channel packetBytes:sum 1812151
attr interpolationmode none
attr source packetBytes(messageSent)
attr unit B
scalar NetworkWithShapingAndPolicing.R7.pppg$o[0].channel throughput:last 11690.378035944
attr source sumPerDuration(packetBits(messageSent))
attr unit bps
scalar NetworkWithShapingAndPolicing.R7.pppg$o[1].channel packetsDiscarded:count 0
attr interpolationmode none
attr source constant1(messageDiscarded)
scalar NetworkWithShapingAndPolicing.R7.pppg$o[1].channel utilization:last 0.014805533305856
attr source timeavg(channelBusy)
scalar NetworkWithShapingAndPolicing.R7.pppg$o[1].channel packets:count 425
attr interpolationmode none
attr source constant1(messageSent)
scalar NetworkWithShapingAndPolicing.R7.pppg$o[1].channel packetBytes:sum 36939
attr interpolationmode none
attr source packetBytes(messageSent)
attr unit B
scalar NetworkWithShapingAndPolicing.R7.pppg$o[1].channel throughput:last 236.89375511441
attr source sumPerDuration(packetBits(messageSent))
attr unit bps
scalar NetworkWithShapingAndPolicing.R7.pppg$o[2].channel packetsDiscarded:count 0
attr interpolationmode none
attr source constant1(messageDiscarded)
scalar NetworkWithShapingAndPolicing.R7.pppg$o[2].channel utilization:last 0.010232989073566
attr source timeavg(channelBusy)
scalar NetworkWithShapingAndPolicing.R7.pppg$o[2].channel packets:count 263
attr interpolationmode none
attr source constant1(messageSent)
scalar NetworkWithShapingAndPolicing.R7.pppg$o[2].channel packetBytes:sum 25381
attr interpolationmode none
attr source packetBytes(messageSent)
attr unit B
scalar NetworkWithShapingAndPolicing.R7.pppg$o[2].channel throughput:last 163.73277615134
attr source sumPerDuration(packetBits(messageSent))
attr unit bps
scalar NetworkWithShapingAndPolicing.R11.pppg$o[0].channel packetsDiscarded:count 0
attr interpolationmode none
attr source constant1(messageDiscarded)
scalar NetworkWithShapingAndPolicing.R11.pppg$o[0].channel utilization:last 0.0044924733520814
attr source timeavg(channelBusy)
scalar NetworkWithShapingAndPolicing.R11.pppg$o[0].channel packets:count 227
attr interpolationmode none
attr source constant1(messageSent)
scalar NetworkWithShapingAndPolicing.R11.pppg$o[0].channel packetBytes:sum 22285
attr interpolationmode none
attr source packetBytes(messageSent)
attr unit B
scalar NetworkWithShapingAndPolicing.R11.pppg$o[0].channel throughput:last 143.76132084941
attr source sumPerDuration(packetBits(messageSent))
attr unit bps
scalar NetworkWithShapingAndPolicing.R11.pppg$o[1].channel packetsDiscarded:count 0
attr interpolationmode none
attr source constant1(messageDiscarded)
scalar NetworkWithShapingAndPolicing.R11.pppg$o[1].channel utilization:last 0.0070644603956738
attr source timeavg(channelBusy)
scalar NetworkWithShapingAndPolicing.R11.pppg$o[1].channel packets:count 222
attr interpolationmode none
attr source constant1(messageSent)
scalar NetworkWithShapingAndPolicing.R11.pppg$o[1].channel packetBytes:sum 17522
attr interpolationmode none
attr source packetBytes(messageSent)
attr unit B
scalar NetworkWithShapingAndPolicing.R11.pppg$o[1].channel throughput:last 113.03478430429
attr source sumPerDuration(packetBits(messageSent))
attr unit bps
scalar NetworkWithShapingAndPolicing.R12.pppg$o[0].channel packetsDiscarded:count 0
attr interpolationmode none
attr source constant1(messageDiscarded)
scalar NetworkWithShapingAndPolicing.R12.pppg$o[0].channel utilization:last 0.12748395010064
attr source timeavg(channelBusy)
scalar NetworkWithShapingAndPolicing.R12.pppg$o[0].channel packets:count 1803
attr interpolationmode none
attr source constant1(messageSent)
scalar NetworkWithShapingAndPolicing.R12.pppg$o[0].channel packetBytes:sum 632367
attr interpolationmode none
attr source packetBytes(messageSent)
attr unit B
scalar NetworkWithShapingAndPolicing.R12.pppg$o[0].channel throughput:last 4079.5480853891
attr source sumPerDuration(packetBits(messageSent))
attr unit bps
scalar NetworkWithShapingAndPolicing.R12.pppg$o[1].channel packetsDiscarded:count 0
attr interpolationmode none
attr source constant1(messageDiscarded)
scalar NetworkWithShapingAndPolicing.R12.pppg$o[1].channel utilization:last 0.0087522155302259
attr source timeavg(channelBusy)
scalar NetworkWithShapingAndPolicing.R12.pppg$o[1].channel packets:count 268
attr interpolationmode none
attr source constant1(messageSent)
scalar NetworkWithShapingAndPolicing.R12.pppg$o[1].channel packetBytes:sum 21708
attr interpolationmode none
attr source packetBytes(messageSent)
attr unit B
scalar NetworkWithShapingAndPolicing.R12.pppg$o[1].channel throughput:last 140.03968306587
attr source sumPerDuration(packetBits(messageSent))
attr unit bps
scalar NetworkWithShapingAndPolicing.R13.pppg$o[0].channel packetsDiscarded:count 0
attr interpolationmode none
attr source constant1(messageDiscarded)
scalar NetworkWithShapingAndPolicing.R13.pppg$o[0].channel utilization:last 0.0052241429644655
attr source timeavg(channelBusy)
scalar NetworkWithShapingAndPolicing.R13.pppg$o[0].channel packets:count 278
attr interpolationmode none
attr source constant1(messageSent)
scalar NetworkWithShapingAndPolicing.R13.pppg$o[0].channel packetBytes:sum 25914
attr interpolationmode none
attr source packetBytes(messageSent)
attr unit B
scalar NetworkWithShapingAndPolicing.R13.pppg$o[0].channel throughput:last 167.17510249266
attr source sumPerDuration(packetBits(messageSent))
attr unit bps
scalar NetworkWithShapingAndPolicing.R13.pppg$o[1].channel packetsDiscarded:count 0
attr interpolationmode none
attr source constant1(messageDiscarded)
scalar NetworkWithShapingAndPolicing.R13.pppg$o[1].channel utilization:last 0.003548068846462
attr source timeavg(channelBusy)
scalar NetworkWithShapingAndPolicing.R13.pppg$o[1].channel packets:count 220
attr interpolationmode none
attr source constant1(messageSent)
scalar NetworkWithShapingAndPolicing.R13.pppg$o[1].channel packetBytes:sum 17600
attr interpolationmode none
attr source packetBytes(messageSent)
attr unit B
scalar NetworkWithShapingAndPolicing.R13.pppg$o[1].channel throughput:last 113.53991976627
attr source sumPerDuration(packetBits(messageSent))
attr unit bps
scalar NetworkWithShapingAndPolicing.R9.pppg$o[0].channel packetsDiscarded:count 0
attr interpolationmode none
attr source constant1(messageDiscarded)
scalar NetworkWithShapingAndPolicing.R9.pppg$o[0].channel utilization:last 0.0079765407811923
attr source timeavg(channelBusy)
scalar NetworkWithShapingAndPolicing.R9.pppg$o[0].channel packets:count 248
attr interpolationmode none
attr source constant1(messageSent)
scalar NetworkWithShapingAndPolicing.R9.pppg$o[0].channel packetBytes:sum 19784
attr interpolationmode none
attr source packetBytes(messageSent)
attr unit B
scalar NetworkWithShapingAndPolicing.R9.pppg$o[0].channel throughput:last 127.62851180721
attr source sumPerDuration(packetBits(messageSent))
attr unit bps
scalar NetworkWithShapingAndPolicing.R9.pppg$o[1].channel packetsDiscarded:count 0
attr interpolationmode none
attr source constant1(messageDiscarded)
scalar NetworkWithShapingAndPolicing.R9.pppg$o[1].channel utilization:last 0.25586290395462
attr source timeavg(channelBusy)
scalar NetworkWithShapingAndPolicing.R9.pppg$o[1].channel packets:count 1814
attr interpolationmode none
attr source constant1(messageSent)
scalar NetworkWithShapingAndPolicing.R9.pppg$o[1].channel packetBytes:sum 634604
attr interpolationmode none
attr source packetBytes(messageSent)
attr unit B
scalar NetworkWithShapingAndPolicing.R9.pppg$o[1].channel throughput:last 4093.930259163
attr source sumPerDuration(packetBits(messageSent))
attr unit bps
scalar NetworkWithShapingAndPolicing.R9.pppg$o[2].channel packetsDiscarded:count 0
attr interpolationmode none
attr source constant1(messageDiscarded)
scalar NetworkWithShapingAndPolicing.R9.pppg$o[2].channel utilization:last 0.0095703514955905
attr source timeavg(channelBusy)
scalar NetworkWithShapingAndPolicing.R9.pppg$o[2].channel packets:count 235
attr interpolationmode none
attr source constant1(messageSent)
scalar NetworkWithShapingAndPolicing.R9.pppg$o[2].channel packetBytes:sum 23737
attr interpolationmode none
attr source packetBytes(messageSent)
attr unit B
scalar NetworkWithShapingAndPolicing.R9.pppg$o[2].channel throughput:last 153.13025439147
attr source sumPerDuration(packetBits(messageSent))
attr unit bps
scalar NetworkWithShapingAndPolicing.R9.pppg$o[3].channel packetsDiscarded:count 0
attr interpolationmode none
attr source constant1(messageDiscarded)
scalar NetworkWithShapingAndPolicing.R9.pppg$o[3].channel utilization:last 0.0096505326520388
attr source timeavg(channelBusy)
scalar NetworkWithShapingAndPolicing.R9.pppg$o[3].channel packets:count 236
attr interpolationmode none
attr source constant1(messageSent)
scalar NetworkWithShapingAndPolicing.R9.pppg$o[3].channel packetBytes:sum 23936
attr interpolationmode none
attr source packetBytes(messageSent)
attr unit B
scalar NetworkWithShapingAndPolicing.R9.pppg$o[3].channel throughput:last 154.41319166374
attr source sumPerDuration(packetBits(messageSent))
attr unit bps
scalar NetworkWithShapingAndPolicing.R10.pppg$o[0].channel packetsDiscarded:count 0
attr interpolationmode none
attr source constant1(messageDiscarded)
scalar NetworkWithShapingAndPolicing.R10.pppg$o[0].channel utilization:last 0.0067939523460705
attr source timeavg(channelBusy)
scalar NetworkWithShapingAndPolicing.R10.pppg$o[0].channel packets:count 217
attr interpolationmode none
attr source constant1(messageSent)
scalar NetworkWithShapingAndPolicing.R10.pppg$o[0].channel packetBytes:sum 16851
attr interpolationmode none
attr source packetBytes(messageSent)
attr unit B
scalar NetworkWithShapingAndPolicing.R10.pppg$o[0].channel throughput:last 108.706524643
attr source sumPerDuration(packetBits(messageSent))
attr unit bps
scalar NetworkWithShapingAndPolicing.R10.pppg$o[1].channel packetsDiscarded:count 0
attr interpolationmode none
attr source constant1(messageDiscarded)
scalar NetworkWithShapingAndPolicing.R10.pppg$o[1].channel utilization:last 0.0093224301004226
attr source timeavg(channelBusy)
scalar NetworkWithShapingAndPolicing.R10.pppg$o[1].channel packets:count 234
attr interpolationmode none
attr source constant1(messageSent)
scalar NetworkWithShapingAndPolicing.R10.pppg$o[1].channel packetBytes:sum 23122
attr interpolationmode none
attr source packetBytes(messageSent)
attr unit B
scalar NetworkWithShapingAndPolicing.R10.pppg$o[1].channel throughput:last 149.16339213341
attr source sumPerDuration(packetBits(messageSent))
attr unit bps
scalar NetworkWithShapingAndPolicing.R14.pppg$o[0].channel packetsDiscarded:count 0
attr interpolationmode none
attr source constant1(messageDiscarded)
scalar NetworkWithShapingAndPolicing.R14.pppg$o[0].channel utilization:last 0.0071491896447691
attr source timeavg(channelBusy)
scalar NetworkWithShapingAndPolicing.R14.pppg$o[0].channel packets:count 224
attr interpolationmode none
attr source constant1(messageSent)
scalar NetworkWithShapingAndPolicing.R14.pppg$o[0].channel packetBytes:sum 17732
attr interpolationmode none
attr source packetBytes(messageSent)
attr unit B
scalar NetworkWithShapingAndPolicing.R14.pppg$o[0].channel throughput:last 114.39049331415
attr source sumPerDuration(packetBits(messageSent))
attr unit bps
scalar NetworkWithShapingAndPolicing.R14.pppg$o[1].channel packetsDiscarded:count 0
attr interpolationmode none
attr source constant1(messageDiscarded)
scalar NetworkWithShapingAndPolicing.R14.pppg$o[1].channel utilization:last 0.011017742473306
attr source timeavg(channelBusy)
scalar NetworkWithShapingAndPolicing.R14.pppg$o[1].channel packets:count 301
attr interpolationmode none
attr source constant1(messageSent)
scalar NetworkWithShapingAndPolicing.R14.pppg$o[1].channel packetBytes:sum 27327
attr interpolationmode none
attr source packetBytes(messageSent)
attr unit B
scalar NetworkWithShapingAndPolicing.R14.pppg$o[1].channel throughput:last 176.28921031481
attr source sumPerDuration(packetBits(messageSent))
attr unit bps
scalar NetworkWithShapingAndPolicing.R8.pppg$o[0].channel packetsDiscarded:count 0
attr interpolationmode none
attr source constant1(messageDiscarded)
scalar NetworkWithShapingAndPolicing.R8.pppg$o[0].channel utilization:last 0.0051380064764921
attr source timeavg(channelBusy)
scalar NetworkWithShapingAndPolicing.R8.pppg$o[0].channel packets:count 277
attr interpolationmode none
attr source constant1(messageSent)
scalar NetworkWithShapingAndPolicing.R8.pppg$o[0].channel packetBytes:sum 25487
attr interpolationmode none
attr source packetBytes(messageSent)
attr unit B
scalar NetworkWithShapingAndPolicing.R8.pppg$o[0].channel throughput:last 164.41869317482
attr source sumPerDuration(packetBits(messageSent))
attr unit bps
scalar NetworkWithShapingAndPolicing.R8.pppg$o[1].channel packetsDiscarded:count 0
attr interpolationmode none
attr source constant1(messageDiscarded)
scalar NetworkWithShapingAndPolicing.R8.pppg$o[1].channel utilization:last 0.017603571631614
attr source timeavg(channelBusy)
scalar NetworkWithShapingAndPolicing.R8.pppg$o[1].channel packets:count 434
attr interpolationmode none
attr source constant1(messageSent)
scalar NetworkWithShapingAndPolicing.R8.pppg$o[1].channel packetBytes:sum 43662
attr interpolationmode none
attr source packetBytes(messageSent)
attr unit B
scalar NetworkWithShapingAndPolicing.R8.pppg$o[1].channel throughput:last 281.6656632174
attr source sumPerDuration(packetBits(messageSent))
attr unit bps
scalar NetworkWithShapingAndPolicing.R8.pppg$o[2].channel packetsDiscarded:count 0
attr interpolationmode none
attr source constant1(messageDiscarded)
scalar NetworkWithShapingAndPolicing.R8.pppg$o[2].channel utilization:last 0.30556149405144
attr source timeavg(channelBusy)
scalar NetworkWithShapingAndPolicing.R8.pppg$o[2].channel packets:count 2110
attr interpolationmode none
attr source constant1(messageSent)
scalar NetworkWithShapingAndPolicing.R8.pppg$o[2].channel packetBytes:sum 757876
attr interpolationmode none
attr source packetBytes(messageSent)
attr unit B
scalar NetworkWithShapingAndPolicing.R8.pppg$o[2].channel throughput:last 4889.1317453406
attr source sumPerDuration(packetBits(messageSent))
attr unit bps
scalar NetworkWithShapingAndPolicing.R15.pppg$o[0].channel packetsDiscarded:count 0
attr interpolationmode none
attr source constant1(messageDiscarded)
scalar NetworkWithShapingAndPolicing.R15.pppg$o[0].channel utilization:last 0.0051160085960184
attr source timeavg(channelBusy)
scalar NetworkWithShapingAndPolicing.R15.pppg$o[0].channel packets:count 282
attr interpolationmode none
attr source constant1(messageSent)
scalar NetworkWithShapingAndPolicing.R15.pppg$o[0].channel packetBytes:sum 25378
attr interpolationmode none
attr source packetBytes(messageSent)
attr unit B
scalar NetworkWithShapingAndPolicing.R15.pppg$o[0].channel throughput:last 163.71475034469
attr source sumPerDuration(packetBits(messageSent))
attr unit bps
scalar NetworkWithShapingAndPolicing.R15.pppg$o[1].channel packetsDiscarded:count 0
attr interpolationmode none
attr source constant1(messageDiscarded)
scalar NetworkWithShapingAndPolicing.R15.pppg$o[1].channel utilization:last 0.0044273900841055
attr source timeavg(channelBusy)
scalar NetworkWithShapingAndPolicing.R15.pppg$o[1].channel packets:count 262
attr interpolationmode none
attr source constant1(messageSent)
scalar NetworkWithShapingAndPolicing.R15.pppg$o[1].channel packetBytes:sum 21962
attr interpolationmode none
attr source packetBytes(messageSent)
attr unit B
scalar NetworkWithShapingAndPolicing.R15.pppg$o[1].channel throughput:last 141.67862480004
attr source sumPerDuration(packetBits(messageSent))
attr unit bps
scalar NetworkWithShapingAndPolicing.R15.pppg$o[2].channel packetsDiscarded:count 0
attr interpolationmode none
attr source constant1(messageDiscarded)
scalar NetworkWithShapingAndPolicing.R15.pppg$o[2].channel utilization:last 0.011489145653401
attr source timeavg(channelBusy)
scalar NetworkWithShapingAndPolicing.R15.pppg$o[2].channel packets:count 304
attr interpolationmode none
attr source constant1(messageSent)
scalar NetworkWithShapingAndPolicing.R15.pppg$o[2].channel packetBytes:sum 28496
attr interpolationmode none
attr source packetBytes(messageSent)
attr unit B
scalar NetworkWithShapingAndPolicing.R15.pppg$o[2].channel throughput:last 183.83188931711
attr source sumPerDuration(packetBits(messageSent))
attr unit bps
scalar NetworkWithShapingAndPolicing.R15.ethg$o[0].channel packetsDiscarded:count 0
attr interpolationmode none
attr source constant1(messageDiscarded)
scalar NetworkWithShapingAndPolicing.R15.ethg$o[0].channel utilization:last 4.2051813503024e-05
attr source timeavg(channelBusy)
scalar NetworkWithShapingAndPolicing.R15.ethg$o[0].channel packets:count 1701
attr interpolationmode none
attr source constant1(messageSent)
scalar NetworkWithShapingAndPolicing.R15.ethg$o[0].channel packetBytes:sum 651866
attr interpolationmode none
attr source packetBytes(messageSent)
attr unit B
scalar NetworkWithShapingAndPolicing.R15.ethg$o[0].channel throughput:last 4205.1813747172
attr source sumPerDuration(packetBits(messageSent))
attr unit bps
scalar NetworkWithShapingAndPolicing.H1.ethg$o[0].channel packetsDiscarded:count 0
attr interpolationmode none
attr source constant1(messageDiscarded)
scalar NetworkWithShapingAndPolicing.H1.ethg$o[0].channel utilization:last 0.0014001326697458
attr source timeavg(channelBusy)
scalar NetworkWithShapingAndPolicing.H1.ethg$o[0].channel packets:count 51857
attr interpolationmode none
attr source constant1(messageSent)
scalar NetworkWithShapingAndPolicing.H1.ethg$o[0].channel packetBytes:sum 21533448
attr interpolationmode none
attr source packetBytes(messageSent)
attr unit B
scalar NetworkWithShapingAndPolicing.H1.ethg$o[0].channel throughput:last 140013.26763005
attr source sumPerDuration(packetBits(messageSent))
attr unit bps
scalar NetworkWithShapingAndPolicing.H2.ethg$o[0].channel packetsDiscarded:count 0
attr interpolationmode none
attr source constant1(messageDiscarded)
scalar NetworkWithShapingAndPolicing.H2.ethg$o[0].channel utilization:last 2.5166130327723e-07
attr source timeavg(channelBusy)
scalar NetworkWithShapingAndPolicing.H2.ethg$o[0].channel packets:count 42
attr interpolationmode none
attr source constant1(messageSent)
scalar NetworkWithShapingAndPolicing.H2.ethg$o[0].channel packetBytes:sum 3870
attr interpolationmode none
attr source packetBytes(messageSent)
attr unit B
scalar NetworkWithShapingAndPolicing.H2.ethg$o[0].channel throughput:last 25.166130445553
attr source sumPerDuration(packetBits(messageSent))
attr unit bps
scalar NetworkWithShapingAndPolicing.R1.lo[0].lo rcvdPkFromHl:count 0
attr interpolationmode none
attr source packetReceivedFromUpper
attr title "packets received from higher layer, count"
scalar NetworkWithShapingAndPolicing.R1.lo[0].lo rcvdPkFromHl:sum(packetBytes) 0
attr interpolationmode none
attr source packetReceivedFromUpper
attr title "packets received from higher layer, sum(packetBytes)"
scalar NetworkWithShapingAndPolicing.R1.lo[0].lo passedUpPk:count 0
attr interpolationmode none
attr source packetSentToUpper
attr title "packets passed to higher layer, count"
scalar NetworkWithShapingAndPolicing.R1.lo[0].lo passedUpPk:sum(packetBytes) 0
attr interpolationmode none
attr source packetSentToUpper
attr title "packets passed to higher layer, sum(packetBytes)"
scalar NetworkWithShapingAndPolicing.R1.ppp[0].ppp.queue.classifier packetPushed:count 0
attr interpolationmode none
attr title "packets pushed, count"
scalar NetworkWithShapingAndPolicing.R1.ppp[0].ppp.queue.classifier packetPushed:sum(packetBytes) 0
attr interpolationmode none
attr title "packets pushed, sum(packetBytes)"
scalar NetworkWithShapingAndPolicing.R1.ppp[0].ppp.queue.classifier packetDropped:count 0
attr interpolationmode none
attr title "packets dropped, count"
scalar NetworkWithShapingAndPolicing.R1.ppp[0].ppp.queue.classifier packetDropped:sum(packetBytes) 0
attr interpolationmode none
attr title "packets dropped, sum(packetBytes)"
scalar NetworkWithShapingAndPolicing.R1.ppp[0].ppp.queue.efQueue packetPopped:count 0
attr interpolationmode none
attr title "packet popped, count"
scalar NetworkWithShapingAndPolicing.R1.ppp[0].ppp.queue.efQueue packetPopped:sum(packetBytes) 0
attr interpolationmode none
attr title "packet popped, sum(packetBytes)"
scalar NetworkWithShapingAndPolicing.R1.ppp[0].ppp.queue.efQueue queueLength:timeavg nan
attr interpolationmode sample-hold
attr source "count(packetPushed) - count(packetPopped) - count(packetRemoved) - count(packetDropped)"
attr title "queue length, timeavg"
scalar NetworkWithShapingAndPolicing.R1.ppp[0].ppp.queue.efQueue packetPushed:count 0
attr interpolationmode none
attr title "packet pushed, count"
scalar NetworkWithShapingAndPolicing.R1.ppp[0].ppp.queue.efQueue packetPushed:sum(packetBytes) 0
attr interpolationmode none
attr title "packet pushed, sum(packetBytes)"
scalar NetworkWithShapingAndPolicing.R1.ppp[0].ppp.queue.efQueue packetDropQueueOverflow:count 0
attr interpolationmode none
attr source packetDropReasonIsQueueOverflow(packetDropped)
attr title "packet drops: queue overflow, count"
scalar NetworkWithShapingAndPolicing.R1.ppp[0].ppp.queue.efQueue packetDropQueueOverflow:sum(packetBytes) 0
attr interpolationmode none
attr source packetDropReasonIsQueueOverflow(packetDropped)
attr title "packet drops: queue overflow, sum(packetBytes)"
scalar NetworkWithShapingAndPolicing.R1.ppp[0].ppp.queue.efQueue packetRemoved:count 0
attr interpolationmode none
attr title "packets removed, count"
scalar NetworkWithShapingAndPolicing.R1.ppp[0].ppp.queue.efQueue packetRemoved:sum(packetBytes) 0
attr interpolationmode none
attr title "packets removed, sum(packetBytes)"
scalar NetworkWithShapingAndPolicing.R1.ppp[0].ppp.queue.af1xQueue packetPopped:count 2600
attr interpolationmode none
attr title "packet popped, count"
scalar NetworkWithShapingAndPolicing.R1.ppp[0].ppp.queue.af1xQueue packetPopped:sum(packetBytes) 520000
attr interpolationmode none
attr title "packet popped, sum(packetBytes)"
scalar NetworkWithShapingAndPolicing.R1.ppp[0].ppp.queue.af1xQueue queueLength:timeavg 41.935350417579
attr interpolationmode sample-hold
attr source "count(packetPushed) - count(packetPopped) - count(packetRemoved) - count(packetDropped)"
attr title "queue length, timeavg"
scalar NetworkWithShapingAndPolicing.R1.ppp[0].ppp.queue.af1xQueue packetPushed:count 2600
attr interpolationmode none
attr title "packet pushed, count"
scalar NetworkWithShapingAndPolicing.R1.ppp[0].ppp.queue.af1xQueue packetPushed:sum(packetBytes) 520000
attr interpolationmode none
attr title "packet pushed, sum(packetBytes)"
scalar NetworkWithShapingAndPolicing.R1.ppp[0].ppp.queue.af1xQueue packetDropQueueOverflow:count 0
attr interpolationmode none
attr source packetDropReasonIsQueueOverflow(packetDropped)
attr title "packet drops: queue overflow, count"
scalar NetworkWithShapingAndPolicing.R1.ppp[0].ppp.queue.af1xQueue packetDropQueueOverflow:sum(packetBytes) 0
attr interpolationmode none
attr source packetDropReasonIsQueueOverflow(packetDropped)
attr title "packet drops: queue overflow, sum(packetBytes)"
scalar NetworkWithShapingAndPolicing.R1.ppp[0].ppp.queue.af1xQueue packetRemoved:count 0
attr interpolationmode none
attr title "packets removed, count"
scalar NetworkWithShapingAndPolicing.R1.ppp[0].ppp.queue.af1xQueue packetRemoved:sum(packetBytes) 0
attr interpolationmode none
attr title "packets removed, sum(packetBytes)"
scalar NetworkWithShapingAndPolicing.R1.ppp[0].ppp.queue.af2xQueue packetPopped:count 5719
attr interpolationmode none
attr title "packet popped, count"
scalar NetworkWithShapingAndPolicing.R1.ppp[0].ppp.queue.af2xQueue packetPopped:sum(packetBytes) 3019632
attr interpolationmode none
attr title "packet popped, sum(packetBytes)"
scalar NetworkWithShapingAndPolicing.R1.ppp[0].ppp.queue.af2xQueue queueLength:timeavg 23.484349691433
attr interpolationmode sample-hold
attr source "count(packetPushed) - count(packetPopped) - count(packetRemoved) - count(packetDropped)"
attr title "queue length, timeavg"
scalar NetworkWithShapingAndPolicing.R1.ppp[0].ppp.queue.af2xQueue packetPushed:count 5719
attr interpolationmode none
attr title "packet pushed, count"
scalar NetworkWithShapingAndPolicing.R1.ppp[0].ppp.queue.af2xQueue packetPushed:sum(packetBytes) 3019632
attr interpolationmode none
attr title "packet pushed, sum(packetBytes)"
scalar NetworkWithShapingAndPolicing.R1.ppp[0].ppp.queue.af2xQueue packetDropQueueOverflow:count 0
attr interpolationmode none
attr source packetDropReasonIsQueueOverflow(packetDropped)
attr title "packet drops: queue overflow, count"
scalar NetworkWithShapingAndPolicing.R1.ppp[0].ppp.queue.af2xQueue packetDropQueueOverflow:sum(packetBytes) 0
attr interpolationmode none
attr source packetDropReasonIsQueueOverflow(packetDropped)
attr title "packet drops: queue overflow, sum(packetBytes)"
scalar NetworkWithShapingAndPolicing.R1.ppp[0].ppp.queue.af2xQueue packetRemoved:count 0
attr interpolationmode none
attr title "packets removed, count"
scalar NetworkWithShapingAndPolicing.R1.ppp[0].ppp.queue.af2xQueue packetRemoved:sum(packetBytes) 0
attr interpolationmode none
attr title "packets removed, sum(packetBytes)"
scalar NetworkWithShapingAndPolicing.R1.ppp[0].ppp.queue.af3xQueue packetPopped:count 13
attr interpolationmode none
attr title "packet popped, count"
scalar NetworkWithShapingAndPolicing.R1.ppp[0].ppp.queue.af3xQueue packetPopped:sum(packetBytes) 682
attr interpolationmode none
attr title "packet popped, sum(packetBytes)"
scalar NetworkWithShapingAndPolicing.R1.ppp[0].ppp.queue.af3xQueue queueLength:timeavg 0.024275407794281
attr interpolationmode sample-hold
attr source "count(packetPushed) - count(packetPopped) - count(packetRemoved) - count(packetDropped)"
attr title "queue length, timeavg"
scalar NetworkWithShapingAndPolicing.R1.ppp[0].ppp.queue.af3xQueue packetPushed:count 13
attr interpolationmode none
attr title "packet pushed, count"
scalar NetworkWithShapingAndPolicing.R1.ppp[0].ppp.queue.af3xQueue packetPushed:sum(packetBytes) 682
attr interpolationmode none
attr title "packet pushed, sum(packetBytes)"
scalar NetworkWithShapingAndPolicing.R1.ppp[0].ppp.queue.af3xQueue packetDropQueueOverflow:count 0
attr interpolationmode none
attr source packetDropReasonIsQueueOverflow(packetDropped)
attr title "packet drops: queue overflow, count"
scalar NetworkWithShapingAndPolicing.R1.ppp[0].ppp.queue.af3xQueue packetDropQueueOverflow:sum(packetBytes) 0
attr interpolationmode none
attr source packetDropReasonIsQueueOverflow(packetDropped)
attr title "packet drops: queue overflow, sum(packetBytes)"
scalar NetworkWithShapingAndPolicing.R1.ppp[0].ppp.queue.af3xQueue packetRemoved:count 0
attr interpolationmode none
attr title "packets removed, count"
scalar NetworkWithShapingAndPolicing.R1.ppp[0].ppp.queue.af3xQueue packetRemoved:sum(packetBytes) 0
attr interpolationmode none
attr title "packets removed, sum(packetBytes)"
scalar NetworkWithShapingAndPolicing.R1.ppp[0].ppp.queue.af4xQueue packetPopped:count 0
attr interpolationmode none
attr title "packet popped, count"
scalar NetworkWithShapingAndPolicing.R1.ppp[0].ppp.queue.af4xQueue packetPopped:sum(packetBytes) 0
attr interpolationmode none
attr title "packet popped, sum(packetBytes)"
scalar NetworkWithShapingAndPolicing.R1.ppp[0].ppp.queue.af4xQueue queueLength:timeavg nan
attr interpolationmode sample-hold
attr source "count(packetPushed) - count(packetPopped) - count(packetRemoved) - count(packetDropped)"
attr title "queue length, timeavg"
scalar NetworkWithShapingAndPolicing.R1.ppp[0].ppp.queue.af4xQueue packetPushed:count 0
attr interpolationmode none
attr title "packet pushed, count"
scalar NetworkWithShapingAndPolicing.R1.ppp[0].ppp.queue.af4xQueue packetPushed:sum(packetBytes) 0
attr interpolationmode none
attr title "packet pushed, sum(packetBytes)"
scalar NetworkWithShapingAndPolicing.R1.ppp[0].ppp.queue.af4xQueue packetDropQueueOverflow:count 0
attr interpolationmode none
attr source packetDropReasonIsQueueOverflow(packetDropped)
attr title "packet drops: queue overflow, count"
scalar NetworkWithShapingAndPolicing.R1.ppp[0].ppp.queue.af4xQueue packetDropQueueOverflow:sum(packetBytes) 0
attr interpolationmode none
attr source packetDropReasonIsQueueOverflow(packetDropped)
attr title "packet drops: queue overflow, sum(packetBytes)"
scalar NetworkWithShapingAndPolicing.R1.ppp[0].ppp.queue.af4xQueue packetRemoved:count 0
attr interpolationmode none
attr title "packets removed, count"
scalar NetworkWithShapingAndPolicing.R1.ppp[0].ppp.queue.af4xQueue packetRemoved:sum(packetBytes) 0
attr interpolationmode none
attr title "packets removed, sum(packetBytes)"
scalar NetworkWithShapingAndPolicing.R1.ppp[0].ppp.queue.beQueue packetPopped:count 272
attr interpolationmode none
attr title "packet popped, count"
scalar NetworkWithShapingAndPolicing.R1.ppp[0].ppp.queue.beQueue packetPopped:sum(packetBytes) 22228
attr interpolationmode none
attr title "packet popped, sum(packetBytes)"
scalar NetworkWithShapingAndPolicing.R1.ppp[0].ppp.queue.beQueue queueLength:timeavg 0.56428397605964
attr interpolationmode sample-hold
attr source "count(packetPushed) - count(packetPopped) - count(packetRemoved) - count(packetDropped)"
attr title "queue length, timeavg"
scalar NetworkWithShapingAndPolicing.R1.ppp[0].ppp.queue.beQueue packetPushed:count 272
attr interpolationmode none
attr title "packet pushed, count"
scalar NetworkWithShapingAndPolicing.R1.ppp[0].ppp.queue.beQueue packetPushed:sum(packetBytes) 22228
attr interpolationmode none
attr title "packet pushed, sum(packetBytes)"
scalar NetworkWithShapingAndPolicing.R1.ppp[0].ppp.queue.beQueue packetDropQueueOverflow:count 0
attr interpolationmode none
attr source packetDropReasonIsQueueOverflow(packetDropped)
attr title "packet drops: queue overflow, count"
scalar NetworkWithShapingAndPolicing.R1.ppp[0].ppp.queue.beQueue packetDropQueueOverflow:sum(packetBytes) 0
attr interpolationmode none
attr source packetDropReasonIsQueueOverflow(packetDropped)
attr title "packet drops: queue overflow, sum(packetBytes)"
scalar NetworkWithShapingAndPolicing.R1.ppp[0].ppp.queue.beQueue packetRemoved:count 0
attr interpolationmode none
attr title "packets removed, count"
scalar NetworkWithShapingAndPolicing.R1.ppp[0].ppp.queue.beQueue packetRemoved:sum(packetBytes) 0
attr interpolationmode none
attr title "packets removed, sum(packetBytes)"
scalar NetworkWithShapingAndPolicing.R1.ppp[0].ppp.queue.wrr packetPopped:count 8604
attr interpolationmode none
attr title "packets popped, count"
scalar NetworkWithShapingAndPolicing.R1.ppp[0].ppp.queue.wrr packetPopped:sum(packetBytes) 3562542
attr interpolationmode none
attr title "packets popped, sum(packetBytes)"
scalar NetworkWithShapingAndPolicing.R1.ppp[0].ppp.queue.priority packetPopped:count 8604
attr interpolationmode none
attr title "packets popped, count"
scalar NetworkWithShapingAndPolicing.R1.ppp[0].ppp.queue.priority packetPopped:sum(packetBytes) 3562542
attr interpolationmode none
attr title "packets popped, sum(packetBytes)"
scalar NetworkWithShapingAndPolicing.R1.ppp[0].ppp.queue packetPopped:count 8604
attr interpolationmode none
attr source localSignal(packetPopped)
attr title "packets popped, count"
scalar NetworkWithShapingAndPolicing.R1.ppp[0].ppp.queue packetPopped:sum(packetBytes) 3562542
attr interpolationmode none
attr source localSignal(packetPopped)
attr title "packets popped, sum(packetBytes)"
statistic NetworkWithShapingAndPolicing.R1.ppp[0].ppp.queue queueingTime:histogram
field count 34416
field mean 9.467267461278
field stddev 9.5352920107348
field min 0
field max 47.995504289851
field sum 325825.47694734
field sqrsum 6213750.4671764
attr interpolationmode none
attr source queueingTime(packetPopped)
attr title "queueing times, histogram"
attr unit s
bin	-inf	0
bin	0	2824
bin	0.8	1860
bin	1.6	1820
bin	2.4	1172
bin	3.2	1744
bin	4	2652
bin	4.8	3328
bin	5.6	3368
bin	6.4	2452
bin	7.2	1208
bin	8	756
bin	8.8	764
bin	9.6	992
bin	10.4	960
bin	11.2	872
bin	12	420
bin	12.8	252
bin	13.6	228
bin	14.4	228
bin	15.2	200
bin	16	456
bin	16.8	336
bin	17.6	108
bin	18.4	108
bin	19.2	132
bin	20	196
bin	20.8	208
bin	21.6	436
bin	22.4	200
bin	23.2	160
bin	24	84
bin	24.8	148
bin	25.6	184
bin	26.4	168
bin	27.2	372
bin	28	212
bin	28.8	332
bin	29.6	220
bin	30.4	248
bin	31.2	212
bin	32	240
bin	32.8	212
bin	33.6	356
bin	34.4	264
bin	35.2	168
bin	36	104
bin	36.8	72
bin	37.6	40
bin	38.4	44
bin	39.2	20
bin	40	52
bin	40.8	68
bin	41.6	40
bin	42.4	24
bin	43.2	36
bin	44	0
bin	44.8	4
bin	45.6	8
bin	46.4	4
bin	47.2	40
bin	48	0
scalar NetworkWithShapingAndPolicing.R1.ppp[0].ppp.queue queueLength:max 101
attr interpolationmode sample-hold
attr source "count(localSignal(packetPushed)) - count(localSignal(packetPopped)) - count(localSignal(packetRemoved)) - count(packetDropped)"
attr title "queue length, max"
scalar NetworkWithShapingAndPolicing.R1.ppp[0].ppp.queue queueLength:timeavg 65.170770345858
attr interpolationmode sample-hold
attr source "count(localSignal(packetPushed)) - count(localSignal(packetPopped)) - count(localSignal(packetRemoved)) - count(packetDropped)"
attr title "queue length, timeavg"
scalar NetworkWithShapingAndPolicing.R1.ppp[0].ppp.queue packetPushed:count 33343
attr interpolationmode none
attr source localSignal(packetPushed)
attr title "packets pushed, count"
scalar NetworkWithShapingAndPolicing.R1.ppp[0].ppp.queue packetPushed:sum(packetBytes) 12864260
attr interpolationmode none
attr source localSignal(packetPushed)
attr title "packets pushed, sum(packetBytes)"
scalar NetworkWithShapingAndPolicing.R1.ppp[0].ppp.queue packetDropQueueOverflow:count 24739
attr interpolationmode none
attr source packetDropReasonIsQueueOverflow(packetDropped)
attr title "packets dropped: queue overflow, count"
scalar NetworkWithShapingAndPolicing.R1.ppp[0].ppp.queue packetDropQueueOverflow:sum(packetBytes) 9301718
attr interpolationmode none
attr source packetDropReasonIsQueueOverflow(packetDropped)
attr title "packets dropped: queue overflow, sum(packetBytes)"
scalar NetworkWithShapingAndPolicing.R1.ppp[0].ppp.queue packetRemoved:count 0
attr interpolationmode none
attr source localSignal(packetRemoved)
attr title "packets removed, count"
scalar NetworkWithShapingAndPolicing.R1.ppp[0].ppp.queue packetRemoved:sum(packetBytes) 0
attr interpolationmode none
attr source localSignal(packetRemoved)
attr title "packets removed, sum(packetBytes)"
scalar NetworkWithShapingAndPolicing.R1.ppp[0].ppp transmissionState:timeavg 0.72455399999993
attr interpolationmode sample-hold
attr source transmissionStateChanged
attr title "tx state, timeavg"
scalar NetworkWithShapingAndPolicing.R1.ppp[0].ppp rxPkOk:count 1143
attr interpolationmode none
attr source rxPkOk
attr title "packets received OK, count"
scalar NetworkWithShapingAndPolicing.R1.ppp[0].ppp rxPkOk:sum(packetBytes) 297909
attr interpolationmode none
attr source rxPkOk
attr title "packets received OK, sum(packetBytes)"
scalar NetworkWithShapingAndPolicing.R1.ppp[0].ppp txPk:count 8604
attr interpolationmode none
attr source packetSentToLower
attr title "packets transmitted, count"
scalar NetworkWithShapingAndPolicing.R1.ppp[0].ppp txPk:sum(packetBytes) 3622770
attr interpolationmode none
attr source packetSentToLower
attr title "packets transmitted, sum(packetBytes)"
scalar NetworkWithShapingAndPolicing.R1.ppp[0].ppp rcvdPkFromHl:count 33343
attr interpolationmode none
attr source packetReceivedFromUpper
attr title "packets received from higher layer, count"
scalar NetworkWithShapingAndPolicing.R1.ppp[0].ppp rcvdPkFromHl:sum(packetBytes) 12864260
attr interpolationmode none
attr source packetReceivedFromUpper
attr title "packets received from higher layer, sum(packetBytes)"
scalar NetworkWithShapingAndPolicing.R1.ppp[0].ppp passedUpPk:count 1143
attr interpolationmode none
attr source packetSentToUpper
attr title "packets passed to higher layer, count"
scalar NetworkWithShapingAndPolicing.R1.ppp[0].ppp passedUpPk:sum(packetBytes) 289908
attr interpolationmode none
attr source packetSentToUpper
attr title "packets passed to higher layer, sum(packetBytes)"
scalar NetworkWithShapingAndPolicing.R1.ppp[0].ppp packetDropIncorrectlyReceived:count 0
attr interpolationmode none
attr source packetDropReasonIsIncorrectlyReceived(packetDropped)
attr title "packet drop: incorrectly received, count"
scalar NetworkWithShapingAndPolicing.R1.ppp[0].ppp packetDropIncorrectlyReceived:sum(packetBytes) 0
attr interpolationmode none
attr source packetDropReasonIsIncorrectlyReceived(packetDropped)
attr title "packet drop: incorrectly received, sum(packetBytes)"
scalar NetworkWithShapingAndPolicing.R1.ppp[0].ppp packetDropInterfaceDown:count 0
attr interpolationmode none
attr source packetDropReasonIsInterfaceDown(packetDropped)
attr title "packet drop: interface down, count"
scalar NetworkWithShapingAndPolicing.R1.ppp[0].ppp packetDropInterfaceDown:sum(packetBytes) 0
attr interpolationmode none
attr source packetDropReasonIsInterfaceDown(packetDropped)
attr title "packet drop: interface down, sum(packetBytes)"
scalar NetworkWithShapingAndPolicing.R1.ppp[1].ppp.queue.classifier packetPushed:count 0
attr interpolationmode none
attr title "packets pushed, count"
scalar NetworkWithShapingAndPolicing.R1.ppp[1].ppp.queue.classifier packetPushed:sum(packetBytes) 0
attr interpolationmode none
attr title "packets pushed, sum(packetBytes)"
scalar NetworkWithShapingAndPolicing.R1.ppp[1].ppp.queue.classifier packetDropped:count 0
attr interpolationmode none
attr title "packets dropped, count"
scalar NetworkWithShapingAndPolicing.R1.ppp[1].ppp.queue.classifier packetDropped:sum(packetBytes) 0
attr interpolationmode none
attr title "packets dropped, sum(packetBytes)"
scalar NetworkWithShapingAndPolicing.R1.ppp[1].ppp.queue.efQueue packetPopped:count 0
attr interpolationmode none
attr title "packet popped, count"
scalar NetworkWithShapingAndPolicing.R1.ppp[1].ppp.queue.efQueue packetPopped:sum(packetBytes) 0
attr interpolationmode none
attr title "packet popped, sum(packetBytes)"
scalar NetworkWithShapingAndPolicing.R1.ppp[1].ppp.queue.efQueue queueLength:timeavg nan
attr interpolationmode sample-hold
attr source "count(packetPushed) - count(packetPopped) - count(packetRemoved) - count(packetDropped)"
attr title "queue length, timeavg"
scalar NetworkWithShapingAndPolicing.R1.ppp[1].ppp.queue.efQueue packetPushed:count 0
attr interpolationmode none
attr title "packet pushed, count"
scalar NetworkWithShapingAndPolicing.R1.ppp[1].ppp.queue.efQueue packetPushed:sum(packetBytes) 0
attr interpolationmode none
attr title "packet pushed, sum(packetBytes)"
scalar NetworkWithShapingAndPolicing.R1.ppp[1].ppp.queue.efQueue packetDropQueueOverflow:count 0
attr interpolationmode none
attr source packetDropReasonIsQueueOverflow(packetDropped)
attr title "packet drops: queue overflow, count"
scalar NetworkWithShapingAndPolicing.R1.ppp[1].ppp.queue.efQueue packetDropQueueOverflow:sum(packetBytes) 0
attr interpolationmode none
attr source packetDropReasonIsQueueOverflow(packetDropped)
attr title "packet drops: queue overflow, sum(packetBytes)"
scalar NetworkWithShapingAndPolicing.R1.ppp[1].ppp.queue.efQueue packetRemoved:count 0
attr interpolationmode none
attr title "packets removed, count"
scalar NetworkWithShapingAndPolicing.R1.ppp[1].ppp.queue.efQueue packetRemoved:sum(packetBytes) 0
attr interpolationmode none
attr title "packets removed, sum(packetBytes)"
scalar NetworkWithShapingAndPolicing.R1.ppp[1].ppp.queue.af1xQueue packetPopped:count 1869
attr interpolationmode none
attr title "packet popped, count"
scalar NetworkWithShapingAndPolicing.R1.ppp[1].ppp.queue.af1xQueue packetPopped:sum(packetBytes) 373800
attr interpolationmode none
attr title "packet popped, sum(packetBytes)"
scalar NetworkWithShapingAndPolicing.R1.ppp[1].ppp.queue.af1xQueue queueLength:timeavg 22.960017852031
attr interpolationmode sample-hold
attr source "count(packetPushed) - count(packetPopped) - count(packetRemoved) - count(packetDropped)"
attr title "queue length, timeavg"
scalar NetworkWithShapingAndPolicing.R1.ppp[1].ppp.queue.af1xQueue packetPushed:count 1869
attr interpolationmode none
attr title "packet pushed, count"
scalar NetworkWithShapingAndPolicing.R1.ppp[1].ppp.queue.af1xQueue packetPushed:sum(packetBytes) 373800
attr interpolationmode none
attr title "packet pushed, sum(packetBytes)"
scalar NetworkWithShapingAndPolicing.R1.ppp[1].ppp.queue.af1xQueue packetDropQueueOverflow:count 0
attr interpolationmode none
attr source packetDropReasonIsQueueOverflow(packetDropped)
attr title "packet drops: queue overflow, count"
scalar NetworkWithShapingAndPolicing.R1.ppp[1].ppp.queue.af1xQueue packetDropQueueOverflow:sum(packetBytes) 0
attr interpolationmode none
attr source packetDropReasonIsQueueOverflow(packetDropped)
attr title "packet drops: queue overflow, sum(packetBytes)"
scalar NetworkWithShapingAndPolicing.R1.ppp[1].ppp.queue.af1xQueue packetRemoved:count 0
attr interpolationmode none
attr title "packets removed, count"
scalar NetworkWithShapingAndPolicing.R1.ppp[1].ppp.queue.af1xQueue packetRemoved:sum(packetBytes) 0
attr interpolationmode none
attr title "packets removed, sum(packetBytes)"
scalar NetworkWithShapingAndPolicing.R1.ppp[1].ppp.queue.af2xQueue packetPopped:count 3626
attr interpolationmode none
attr title "packet popped, count"
scalar NetworkWithShapingAndPolicing.R1.ppp[1].ppp.queue.af2xQueue packetPopped:sum(packetBytes) 1914528
attr interpolationmode none
attr title "packet popped, sum(packetBytes)"
scalar NetworkWithShapingAndPolicing.R1.ppp[1].ppp.queue.af2xQueue queueLength:timeavg 16.679399271255
attr interpolationmode sample-hold
attr source "count(packetPushed) - count(packetPopped) - count(packetRemoved) - count(packetDropped)"
attr title "queue length, timeavg"
scalar NetworkWithShapingAndPolicing.R1.ppp[1].ppp.queue.af2xQueue packetPushed:count 3626
attr interpolationmode none
attr title "packet pushed, count"
scalar NetworkWithShapingAndPolicing.R1.ppp[1].ppp.queue.af2xQueue packetPushed:sum(packetBytes) 1914528
attr interpolationmode none
attr title "packet pushed, sum(packetBytes)"
scalar NetworkWithShapingAndPolicing.R1.ppp[1].ppp.queue.af2xQueue packetDropQueueOverflow:count 0
attr interpolationmode none
attr source packetDropReasonIsQueueOverflow(packetDropped)
attr title "packet drops: queue overflow, count"
scalar NetworkWithShapingAndPolicing.R1.ppp[1].ppp.queue.af2xQueue packetDropQueueOverflow:sum(packetBytes) 0
attr interpolationmode none
attr source packetDropReasonIsQueueOverflow(packetDropped)
attr title "packet drops: queue overflow, sum(packetBytes)"
scalar NetworkWithShapingAndPolicing.R1.ppp[1].ppp.queue.af2xQueue packetRemoved:count 0
attr interpolationmode none
attr title "packets removed, count"
scalar NetworkWithShapingAndPolicing.R1.ppp[1].ppp.queue.af2xQueue packetRemoved:sum(packetBytes) 0
attr interpolationmode none
attr title "packets removed, sum(packetBytes)"
scalar NetworkWithShapingAndPolicing.R1.ppp[1].ppp.queue.af3xQueue packetPopped:count 8
attr interpolationmode none
attr title "packet popped, count"
scalar NetworkWithShapingAndPolicing.R1.ppp[1].ppp.queue.af3xQueue packetPopped:sum(packetBytes) 378
attr interpolationmode none
attr title "packet popped, sum(packetBytes)"
scalar NetworkWithShapingAndPolicing.R1.ppp[1].ppp.queue.af3xQueue queueLength:timeavg 0.021699273333687
attr interpolationmode sample-hold
attr source "count(packetPushed) - count(packetPopped) - count(packetRemoved) - count(packetDropped)"
attr title "queue length, timeavg"
scalar NetworkWithShapingAndPolicing.R1.ppp[1].ppp.queue.af3xQueue packetPushed:count 8
attr interpolationmode none
attr title "packet pushed, count"
scalar NetworkWithShapingAndPolicing.R1.ppp[1].ppp.queue.af3xQueue packetPushed:sum(packetBytes) 378
attr interpolationmode none
attr title "packet pushed, sum(packetBytes)"
scalar NetworkWithShapingAndPolicing.R1.ppp[1].ppp.queue.af3xQueue packetDropQueueOverflow:count 0
attr interpolationmode none
attr source packetDropReasonIsQueueOverflow(packetDropped)
attr title "packet drops: queue overflow, count"
scalar NetworkWithShapingAndPolicing.R1.ppp[1].ppp.queue.af3xQueue packetDropQueueOverflow:sum(packetBytes) 0
attr interpolationmode none
attr source packetDropReasonIsQueueOverflow(packetDropped)
attr title "packet drops: queue overflow, sum(packetBytes)"
scalar NetworkWithShapingAndPolicing.R1.ppp[1].ppp.queue.af3xQueue packetRemoved:count 0
attr interpolationmode none
attr title "packets removed, count"
scalar NetworkWithShapingAndPolicing.R1.ppp[1].ppp.queue.af3xQueue packetRemoved:sum(packetBytes) 0
attr interpolationmode none
attr title "packets removed, sum(packetBytes)"
scalar NetworkWithShapingAndPolicing.R1.ppp[1].ppp.queue.af4xQueue packetPopped:count 0
attr interpolationmode none
attr title "packet popped, count"
scalar NetworkWithShapingAndPolicing.R1.ppp[1].ppp.queue.af4xQueue packetPopped:sum(packetBytes) 0
attr interpolationmode none
attr title "packet popped, sum(packetBytes)"
scalar NetworkWithShapingAndPolicing.R1.ppp[1].ppp.queue.af4xQueue queueLength:timeavg nan
attr interpolationmode sample-hold
attr source "count(packetPushed) - count(packetPopped) - count(packetRemoved) - count(packetDropped)"
attr title "queue length, timeavg"
scalar NetworkWithShapingAndPolicing.R1.ppp[1].ppp.queue.af4xQueue packetPushed:count 0
attr interpolationmode none
attr title "packet pushed, count"
scalar NetworkWithShapingAndPolicing.R1.ppp[1].ppp.queue.af4xQueue packetPushed:sum(packetBytes) 0
attr interpolationmode none
attr title "packet pushed, sum(packetBytes)"
scalar NetworkWithShapingAndPolicing.R1.ppp[1].ppp.queue.af4xQueue packetDropQueueOverflow:count 0
attr interpolationmode none
attr source packetDropReasonIsQueueOverflow(packetDropped)
attr title "packet drops: queue overflow, count"
scalar NetworkWithShapingAndPolicing.R1.ppp[1].ppp.queue.af4xQueue packetDropQueueOverflow:sum(packetBytes) 0
attr interpolationmode none
attr source packetDropReasonIsQueueOverflow(packetDropped)
attr title "packet drops: queue overflow, sum(packetBytes)"
scalar NetworkWithShapingAndPolicing.R1.ppp[1].ppp.queue.af4xQueue packetRemoved:count 0
attr interpolationmode none
attr title "packets removed, count"
scalar NetworkWithShapingAndPolicing.R1.ppp[1].ppp.queue.af4xQueue packetRemoved:sum(packetBytes) 0
attr interpolationmode none
attr title "packets removed, sum(packetBytes)"
scalar NetworkWithShapingAndPolicing.R1.ppp[1].ppp.queue.beQueue packetPopped:count 316
attr interpolationmode none
attr title "packet popped, count"
scalar NetworkWithShapingAndPolicing.R1.ppp[1].ppp.queue.beQueue packetPopped:sum(packetBytes) 22904
attr interpolationmode none
attr title "packet popped, sum(packetBytes)"
scalar NetworkWithShapingAndPolicing.R1.ppp[1].ppp.queue.beQueue queueLength:timeavg 0.52491724351197
attr interpolationmode sample-hold
attr source "count(packetPushed) - count(packetPopped) - count(packetRemoved) - count(packetDropped)"
attr title "queue length, timeavg"
scalar NetworkWithShapingAndPolicing.R1.ppp[1].ppp.queue.beQueue packetPushed:count 316
attr interpolationmode none
attr title "packet pushed, count"
scalar NetworkWithShapingAndPolicing.R1.ppp[1].ppp.queue.beQueue packetPushed:sum(packetBytes) 22904
attr interpolationmode none
attr title "packet pushed, sum(packetBytes)"
scalar NetworkWithShapingAndPolicing.R1.ppp[1].ppp.queue.beQueue packetDropQueueOverflow:count 0
attr interpolationmode none
attr source packetDropReasonIsQueueOverflow(packetDropped)
attr title "packet drops: queue overflow, count"
scalar NetworkWithShapingAndPolicing.R1.ppp[1].ppp.queue.beQueue packetDropQueueOverflow:sum(packetBytes) 0
attr interpolationmode none
attr source packetDropReasonIsQueueOverflow(packetDropped)
attr title "packet drops: queue overflow, sum(packetBytes)"
scalar NetworkWithShapingAndPolicing.R1.ppp[1].ppp.queue.beQueue packetRemoved:count 0
attr interpolationmode none
attr title "packets removed, count"
scalar NetworkWithShapingAndPolicing.R1.ppp[1].ppp.queue.beQueue packetRemoved:sum(packetBytes) 0
attr interpolationmode none
attr title "packets removed, sum(packetBytes)"
scalar NetworkWithShapingAndPolicing.R1.ppp[1].ppp.queue.wrr packetPopped:count 5819
attr interpolationmode none
attr title "packets popped, count"
scalar NetworkWithShapingAndPolicing.R1.ppp[1].ppp.queue.wrr packetPopped:sum(packetBytes) 2311610
attr interpolationmode none
attr title "packets popped, sum(packetBytes)"
scalar NetworkWithShapingAndPolicing.R1.ppp[1].ppp.queue.priority packetPopped:count 5819
attr interpolationmode none
attr title "packets popped, count"
scalar NetworkWithShapingAndPolicing.R1.ppp[1].ppp.queue.priority packetPopped:sum(packetBytes) 2311610
attr interpolationmode none
attr title "packets popped, sum(packetBytes)"
scalar NetworkWithShapingAndPolicing.R1.ppp[1].ppp.queue packetPopped:count 5819
attr interpolationmode none
attr source localSignal(packetPopped)
attr title "packets popped, count"
scalar NetworkWithShapingAndPolicing.R1.ppp[1].ppp.queue packetPopped:sum(packetBytes) 2311610
attr interpolationmode none
attr source localSignal(packetPopped)
attr title "packets popped, sum(packetBytes)"
statistic NetworkWithShapingAndPolicing.R1.ppp[1].ppp.queue queueingTime:histogram
field count 23276
field mean 8.6218136707632
field stddev 7.1078218138458
field min 0
field max 35.694492243374
field sum 200681.33500068
field sqrsum 2906116.4001435
attr interpolationmode none
attr source queueingTime(packetPopped)
attr title "queueing times, histogram"
attr unit s
bin	-inf	0
bin	0	1660
bin	0.4	436
bin	0.8	452
bin	1.2	384
bin	1.6	328
bin	2	376
bin	2.4	416
bin	2.8	564
bin	3.2	576
bin	3.6	612
bin	4	800
bin	4.4	852
bin	4.8	852
bin	5.2	872
bin	5.6	940
bin	6	560
bin	6.4	816
bin	6.8	888
bin	7.2	1076
bin	7.6	956
bin	8	432
bin	8.4	408
bin	8.8	392
bin	9.2	372
bin	9.6	536
bin	10	372
bin	10.4	364
bin	10.8	372
bin	11.2	388
bin	11.6	168
bin	12	184
bin	12.4	228
bin	12.8	144
bin	13.2	152
bin	13.6	104
bin	14	148
bin	14.4	76
bin	14.8	96
bin	15.2	116
bin	15.6	200
bin	16	180
bin	16.4	100
bin	16.8	152
bin	17.2	164
bin	17.6	60
bin	18	108
bin	18.4	220
bin	18.8	152
bin	19.2	64
bin	19.6	68
bin	20	120
bin	20.4	96
bin	20.8	40
bin	21.2	192
bin	21.6	120
bin	22	124
bin	22.4	136
bin	22.8	156
bin	23.2	104
bin	23.6	88
bin	24	72
bin	24.4	100
bin	24.8	32
bin	25.2	32
bin	25.6	44
bin	26	56
bin	26.4	32
bin	26.8	80
bin	27.2	92
bin	27.6	144
bin	28	64
bin	28.4	96
bin	28.8	104
bin	29.2	12
bin	29.6	12
bin	30	4
bin	30.4	0
bin	30.8	48
bin	31.2	8
bin	31.6	8
bin	32	12
bin	32.4	12
bin	32.8	4
bin	33.2	12
bin	33.6	0
bin	34	40
bin	34.4	4
bin	34.8	0
bin	35.2	28
bin	35.6	12
bin	36	0
scalar NetworkWithShapingAndPolicing.R1.ppp[1].ppp.queue queueLength:max 101
attr interpolationmode sample-hold
attr source "count(localSignal(packetPushed)) - count(localSignal(packetPopped)) - count(localSignal(packetRemoved)) - count(packetDropped)"
attr title "queue length, max"
scalar NetworkWithShapingAndPolicing.R1.ppp[1].ppp.queue queueLength:timeavg 40.139751956099
attr interpolationmode sample-hold
attr source "count(localSignal(packetPushed)) - count(localSignal(packetPopped)) - count(localSignal(packetRemoved)) - count(packetDropped)"
attr title "queue length, timeavg"
scalar NetworkWithShapingAndPolicing.R1.ppp[1].ppp.queue packetPushed:count 20297
attr interpolationmode none
attr source localSignal(packetPushed)
attr title "packets pushed, count"
scalar NetworkWithShapingAndPolicing.R1.ppp[1].ppp.queue packetPushed:sum(packetBytes) 7669366
attr interpolationmode none
attr source localSignal(packetPushed)
attr title "packets pushed, sum(packetBytes)"
scalar NetworkWithShapingAndPolicing.R1.ppp[1].ppp.queue packetDropQueueOverflow:count 14478
attr interpolationmode none
attr source packetDropReasonIsQueueOverflow(packetDropped)
attr title "packets dropped: queue overflow, count"
scalar NetworkWithShapingAndPolicing.R1.ppp[1].ppp.queue packetDropQueueOverflow:sum(packetBytes) 5357756
attr interpolationmode none
attr source packetDropReasonIsQueueOverflow(packetDropped)
attr title "packets dropped: queue overflow, sum(packetBytes)"
scalar NetworkWithShapingAndPolicing.R1.ppp[1].ppp.queue packetRemoved:count 0
attr interpolationmode none
attr source localSignal(packetRemoved)
attr title "packets removed, count"
scalar NetworkWithShapingAndPolicing.R1.ppp[1].ppp.queue packetRemoved:sum(packetBytes) 0
attr interpolationmode none
attr source localSignal(packetRemoved)
attr title "packets removed, sum(packetBytes)"
scalar NetworkWithShapingAndPolicing.R1.ppp[1].ppp transmissionState:timeavg 0.47046860000002
attr interpolationmode sample-hold
attr source transmissionStateChanged
attr title "tx state, timeavg"
scalar NetworkWithShapingAndPolicing.R1.ppp[1].ppp rxPkOk:count 425
attr interpolationmode none
attr source rxPkOk
attr title "packets received OK, count"
scalar NetworkWithShapingAndPolicing.R1.ppp[1].ppp rxPkOk:sum(packetBytes) 51779
attr interpolationmode none
attr source rxPkOk
attr title "packets received OK, sum(packetBytes)"
scalar NetworkWithShapingAndPolicing.R1.ppp[1].ppp txPk:count 5819
attr interpolationmode none
attr source packetSentToLower
attr title "packets transmitted, count"
scalar NetworkWithShapingAndPolicing.R1.ppp[1].ppp txPk:sum(packetBytes) 2352343
attr interpolationmode none
attr source packetSentToLower
attr title "packets transmitted, sum(packetBytes)"
scalar NetworkWithShapingAndPolicing.R1.ppp[1].ppp rcvdPkFromHl:count 20297
attr interpolationmode none
attr source packetReceivedFromUpper
attr title "packets received from higher layer, count"
scalar NetworkWithShapingAndPolicing.R1.ppp[1].ppp rcvdPkFromHl:sum(packetBytes) 7669366
attr interpolationmode none
attr source packetReceivedFromUpper
attr title "packets received from higher layer, sum(packetBytes)"
scalar NetworkWithShapingAndPolicing.R1.ppp[1].ppp passedUpPk:count 425
attr interpolationmode none
attr source packetSentToUpper
attr title "packets passed to higher layer, count"
scalar NetworkWithShapingAndPolicing.R1.ppp[1].ppp passedUpPk:sum(packetBytes) 48804
attr interpolationmode none
attr source packetSentToUpper
attr title "packets passed to higher layer, sum(packetBytes)"
scalar NetworkWithShapingAndPolicing.R1.ppp[1].ppp packetDropIncorrectlyReceived:count 0
attr interpolationmode none
attr source packetDropReasonIsIncorrectlyReceived(packetDropped)
attr title "packet drop: incorrectly received, count"
scalar NetworkWithShapingAndPolicing.R1.ppp[1].ppp packetDropIncorrectlyReceived:sum(packetBytes) 0
attr interpolationmode none
attr source packetDropReasonIsIncorrectlyReceived(packetDropped)
attr title "packet drop: incorrectly received, sum(packetBytes)"
scalar NetworkWithShapingAndPolicing.R1.ppp[1].ppp packetDropInterfaceDown:count 0
attr interpolationmode none
attr source packetDropReasonIsInterfaceDown(packetDropped)
attr title "packet drop: interface down, count"
scalar NetworkWithShapingAndPolicing.R1.ppp[1].ppp packetDropInterfaceDown:sum(packetBytes) 0
attr interpolationmode none
attr source packetDropReasonIsInterfaceDown(packetDropped)
attr title "packet drop: interface down, sum(packetBytes)"
scalar NetworkWithShapingAndPolicing.R1.eth[0].ingressTC.classifier packetPushed:count 0
attr interpolationmode none
attr title "packets pushed, count"
scalar NetworkWithShapingAndPolicing.R1.eth[0].ingressTC.classifier packetPushed:sum(packetBytes) 0
attr interpolationmode none
attr title "packets pushed, sum(packetBytes)"
scalar NetworkWithShapingAndPolicing.R1.eth[0].ingressTC.classifier packetDropped:count 0
attr interpolationmode none
attr title "packets dropped, count"
scalar NetworkWithShapingAndPolicing.R1.eth[0].ingressTC.classifier packetDropped:sum(packetBytes) 0
attr interpolationmode none
attr title "packets dropped, sum(packetBytes)"
scalar NetworkWithShapingAndPolicing.R1.eth[0].ingressTC.marker packetMarked:count 51846
attr interpolationmode none
attr source packetMarked
attr title "packets marked, count"
scalar NetworkWithShapingAndPolicing.R1.eth[0].ingressTC.marker packetMarked:sum(packetBytes) 20184660
attr interpolationmode none
attr source packetMarked
attr title "packets marked, sum(packetBytes)"
scalar NetworkWithShapingAndPolicing.R1.eth[0].mac.queue.classifier packetPushed:count 167
attr interpolationmode none
attr title "packets pushed, count"
scalar NetworkWithShapingAndPolicing.R1.eth[0].mac.queue.classifier packetPushed:sum(packetBytes) 13784
attr interpolationmode none
attr title "packets pushed, sum(packetBytes)"
scalar NetworkWithShapingAndPolicing.R1.eth[0].mac.queue.classifier packetDropped:count 0
attr interpolationmode none
attr title "packets dropped, count"
scalar NetworkWithShapingAndPolicing.R1.eth[0].mac.queue.classifier packetDropped:sum(packetBytes) 0
attr interpolationmode none
attr title "packets dropped, sum(packetBytes)"
scalar NetworkWithShapingAndPolicing.R1.eth[0].mac.queue.pauseQueue packetPopped:count 0
attr interpolationmode none
attr title "packet popped, count"
scalar NetworkWithShapingAndPolicing.R1.eth[0].mac.queue.pauseQueue packetPopped:sum(packetBytes) 0
attr interpolationmode none
attr title "packet popped, sum(packetBytes)"
statistic NetworkWithShapingAndPolicing.R1.eth[0].mac.queue.pauseQueue queueingTime:histogram
field count 0
field mean nan
field stddev nan
field min nan
field max nan
field sum 0
field sqrsum 0
attr interpolationmode none
attr source queueingTime(packetPopped)
attr title "queueing times, histogram"
attr unit s
bin	-inf	0
bin	0	0
bin	1	0
scalar NetworkWithShapingAndPolicing.R1.eth[0].mac.queue.pauseQueue queueLength:max nan
attr interpolationmode sample-hold
attr source "count(packetPushed) - count(packetPopped) - count(packetRemoved) - count(packetDropped)"
attr title "queue length, max"
scalar NetworkWithShapingAndPolicing.R1.eth[0].mac.queue.pauseQueue queueLength:timeavg nan
attr interpolationmode sample-hold
attr source "count(packetPushed) - count(packetPopped) - count(packetRemoved) - count(packetDropped)"
attr title "queue length, timeavg"
scalar NetworkWithShapingAndPolicing.R1.eth[0].mac.queue.pauseQueue packetPushed:count 0
attr interpolationmode none
attr title "packet pushed, count"
scalar NetworkWithShapingAndPolicing.R1.eth[0].mac.queue.pauseQueue packetPushed:sum(packetBytes) 0
attr interpolationmode none
attr title "packet pushed, sum(packetBytes)"
scalar NetworkWithShapingAndPolicing.R1.eth[0].mac.queue.pauseQueue packetDropQueueOverflow:count 0
attr interpolationmode none
attr source packetDropReasonIsQueueOverflow(packetDropped)
attr title "packet drops: queue overflow, count"
scalar NetworkWithShapingAndPolicing.R1.eth[0].mac.queue.pauseQueue packetDropQueueOverflow:sum(packetBytes) 0
attr interpolationmode none
attr source packetDropReasonIsQueueOverflow(packetDropped)
attr title "packet drops: queue overflow, sum(packetBytes)"
scalar NetworkWithShapingAndPolicing.R1.eth[0].mac.queue.pauseQueue packetRemoved:count 0
attr interpolationmode none
attr title "packets removed, count"
scalar NetworkWithShapingAndPolicing.R1.eth[0].mac.queue.pauseQueue packetRemoved:sum(packetBytes) 0
attr interpolationmode none
attr title "packets removed, sum(packetBytes)"
scalar NetworkWithShapingAndPolicing.R1.eth[0].mac.queue.dataQueue packetPopped:count 167
attr interpolationmode none
attr title "packet popped, count"
scalar NetworkWithShapingAndPolicing.R1.eth[0].mac.queue.dataQueue packetPopped:sum(packetBytes) 13784
attr interpolationmode none
attr title "packet popped, sum(packetBytes)"
statistic NetworkWithShapingAndPolicing.R1.eth[0].mac.queue.dataQueue queueingTime:histogram
field count 167
field mean 0
field stddev 0
field min 0
field max 0
field sum 0
field sqrsum 0
attr interpolationmode none
attr source queueingTime(packetPopped)
attr title "queueing times, histogram"
attr unit s
bin	-inf	0
bin	-0.5	0
bin	-0.48	0
bin	-0.46	0
bin	-0.44	0
bin	-0.42	0
bin	-0.4	0
bin	-0.38	0
bin	-0.36	0
bin	-0.34	0
bin	-0.32	0
bin	-0.3	0
bin	-0.28	0
bin	-0.26	0
bin	-0.24	0
bin	-0.22	0
bin	-0.2	0
bin	-0.18	0
bin	-0.16	0
bin	-0.14	0
bin	-0.12	0
bin	-0.1	0
bin	-0.08	0
bin	-0.06	0
bin	-0.04	0
bin	-0.02	0
bin	0	167
bin	0.02	0
bin	0.04	0
bin	0.06	0
bin	0.08	0
bin	0.1	0
bin	0.12	0
bin	0.14	0
bin	0.16	0
bin	0.18	0
bin	0.2	0
bin	0.22	0
bin	0.24	0
bin	0.26	0
bin	0.28	0
bin	0.3	0
bin	0.32	0
bin	0.34	0
bin	0.36	0
bin	0.38	0
bin	0.4	0
bin	0.42	0
bin	0.44	0
bin	0.46	0
bin	0.48	0
bin	0.5	0
scalar NetworkWithShapingAndPolicing.R1.eth[0].mac.queue.dataQueue queueLength:max 1
attr interpolationmode sample-hold
attr source "count(packetPushed) - count(packetPopped) - count(packetRemoved) - count(packetDropped)"
attr title "queue length, max"
scalar NetworkWithShapingAndPolicing.R1.eth[0].mac.queue.dataQueue queueLength:timeavg 0
attr interpolationmode sample-hold
attr source "count(packetPushed) - count(packetPopped) - count(packetRemoved) - count(packetDropped)"
attr title "queue length, timeavg"
scalar NetworkWithShapingAndPolicing.R1.eth[0].mac.queue.dataQueue packetPushed:count 167
attr interpolationmode none
attr title "packet pushed, count"
scalar NetworkWithShapingAndPolicing.R1.eth[0].mac.queue.dataQueue packetPushed:sum(packetBytes) 13784
attr interpolationmode none
attr title "packet pushed, sum(packetBytes)"
scalar NetworkWithShapingAndPolicing.R1.eth[0].mac.queue.dataQueue packetDropQueueOverflow:count 0
attr interpolationmode none
attr source packetDropReasonIsQueueOverflow(packetDropped)
attr title "packet drops: queue overflow, count"
scalar NetworkWithShapingAndPolicing.R1.eth[0].mac.queue.dataQueue packetDropQueueOverflow:sum(packetBytes) 0
attr interpolationmode none
attr source packetDropReasonIsQueueOverflow(packetDropped)
attr title "packet drops: queue overflow, sum(packetBytes)"
scalar NetworkWithShapingAndPolicing.R1.eth[0].mac.queue.dataQueue packetRemoved:count 0
attr interpolationmode none
attr title "packets removed, count"
scalar NetworkWithShapingAndPolicing.R1.eth[0].mac.queue.dataQueue packetRemoved:sum(packetBytes) 0
attr interpolationmode none
attr title "packets removed, sum(packetBytes)"
scalar NetworkWithShapingAndPolicing.R1.eth[0].mac.queue.scheduler packetPopped:count 167
attr interpolationmode none
attr title "packets popped, count"
scalar NetworkWithShapingAndPolicing.R1.eth[0].mac.queue.scheduler packetPopped:sum(packetBytes) 13784
attr interpolationmode none
attr title "packets popped, sum(packetBytes)"
scalar NetworkWithShapingAndPolicing.R1.eth[0].mac.queue packetPopped:count 167
attr interpolationmode none
attr source localSignal(packetPopped)
attr title "packets popped, count"
scalar NetworkWithShapingAndPolicing.R1.eth[0].mac.queue packetPopped:sum(packetBytes) 13784
attr interpolationmode none
attr source localSignal(packetPopped)
attr title "packets popped, sum(packetBytes)"
statistic NetworkWithShapingAndPolicing.R1.eth[0].mac.queue queueingTime:histogram
field count 501
field mean 0
field stddev 0
field min 0
field max 0
field sum 0
field sqrsum 0
attr interpolationmode none
attr source queueingTime(packetPopped)
attr title "queueing times, histogram"
attr unit s
bin	-inf	0
bin	-0.5	0
bin	-0.48	0
bin	-0.46	0
bin	-0.44	0
bin	-0.42	0
bin	-0.4	0
bin	-0.38	0
bin	-0.36	0
bin	-0.34	0
bin	-0.32	0
bin	-0.3	0
bin	-0.28	0
bin	-0.26	0
bin	-0.24	0
bin	-0.22	0
bin	-0.2	0
bin	-0.18	0
bin	-0.16	0
bin	-0.14	0
bin	-0.12	0
bin	-0.1	0
bin	-0.08	0
bin	-0.06	0
bin	-0.04	0
bin	-0.02	0
bin	0	501
bin	0.02	0
bin	0.04	0
bin	0.06	0
bin	0.08	0
bin	0.1	0
bin	0.12	0
bin	0.14	0
bin	0.16	0
bin	0.18	0
bin	0.2	0
bin	0.22	0
bin	0.24	0
bin	0.26	0
bin	0.28	0
bin	0.3	0
bin	0.32	0
bin	0.34	0
bin	0.36	0
bin	0.38	0
bin	0.4	0
bin	0.42	0
bin	0.44	0
bin	0.46	0
bin	0.48	0
bin	0.5	0
scalar NetworkWithShapingAndPolicing.R1.eth[0].mac.queue queueLength:max 1
attr interpolationmode sample-hold
attr source "count(localSignal(packetPushed)) - count(localSignal(packetPopped)) - count(localSignal(packetRemoved)) - count(packetDropped)"
attr title "queue length, max"
scalar NetworkWithShapingAndPolicing.R1.eth[0].mac.queue queueLength:timeavg 0
attr interpolationmode sample-hold
attr source "count(localSignal(packetPushed)) - count(localSignal(packetPopped)) - count(localSignal(packetRemoved)) - count(packetDropped)"
attr title "queue length, timeavg"
scalar NetworkWithShapingAndPolicing.R1.eth[0].mac.queue packetPushed:count 167
attr interpolationmode none
attr source localSignal(packetPushed)
attr title "packets pushed, count"
scalar NetworkWithShapingAndPolicing.R1.eth[0].mac.queue packetPushed:sum(packetBytes) 13784
attr interpolationmode none
attr source localSignal(packetPushed)
attr title "packets pushed, sum(packetBytes)"
scalar NetworkWithShapingAndPolicing.R1.eth[0].mac.queue packetDropQueueOverflow:count 0
attr interpolationmode none
attr source packetDropReasonIsQueueOverflow(packetDropped)
attr title "packets dropped: queue overflow, count"
scalar NetworkWithShapingAndPolicing.R1.eth[0].mac.queue packetDropQueueOverflow:sum(packetBytes) 0
attr interpolationmode none
attr source packetDropReasonIsQueueOverflow(packetDropped)
attr title "packets dropped: queue overflow, sum(packetBytes)"
scalar NetworkWithShapingAndPolicing.R1.eth[0].mac.queue packetRemoved:count 0
attr interpolationmode none
attr source localSignal(packetRemoved)
attr title "packets removed, count"
scalar NetworkWithShapingAndPolicing.R1.eth[0].mac.queue packetRemoved:sum(packetBytes) 0
attr interpolationmode none
attr source localSignal(packetRemoved)
attr title "packets removed, sum(packetBytes)"
scalar NetworkWithShapingAndPolicing.R1.eth[0].mac "simulated time" 1250
scalar NetworkWithShapingAndPolicing.R1.eth[0].mac full-duplex 1
scalar NetworkWithShapingAndPolicing.R1.eth[0].mac "frames/sec sent" 0.1336
[...]
attr interpolationmode none
attr title "packets removed, sum(packetBytes)"
scalar NetworkWithShapingAndPolicing.H2.eth[0].mac.queue.dataQueue packetPopped:count 42
attr interpolationmode none
attr title "packet popped, count"
scalar NetworkWithShapingAndPolicing.H2.eth[0].mac.queue.dataQueue packetPopped:sum(packetBytes) 3534
attr interpolationmode none
attr title "packet popped, sum(packetBytes)"
statistic NetworkWithShapingAndPolicing.H2.eth[0].mac.queue.dataQueue queueingTime:histogram
field count 42
field mean 9.6e-07
field stddev 2.3800143471591e-06
field min 0
field max 6.72e-06
field sum 4.032e-05
field sqrsum 2.709504e-10
attr interpolationmode none
attr source queueingTime(packetPopped)
attr title "queueing times, histogram"
attr unit s
bin	-inf	0
bin	0	36
bin	1e-07	0
bin	2e-07	0
bin	3e-07	0
bin	4e-07	0
bin	5e-07	0
bin	6e-07	0
bin	7e-07	0
bin	8e-07	0
bin	9e-07	0
bin	1e-06	0
bin	1.1e-06	0
bin	1.2e-06	0
bin	1.3e-06	0
bin	1.4e-06	0
bin	1.5e-06	0
bin	1.6e-06	0
bin	1.7e-06	0
bin	1.8e-06	0
bin	1.9e-06	0
bin	2e-06	0
bin	2.1e-06	0
bin	2.2e-06	0
bin	2.3e-06	0
bin	2.4e-06	0
bin	2.5e-06	0
bin	2.6e-06	0
bin	2.7e-06	0
bin	2.8e-06	0
bin	2.9e-06	0
bin	3e-06	0
bin	3.1e-06	0
bin	3.2e-06	0
bin	3.3e-06	0
bin	3.4e-06	0
bin	3.5e-06	0
bin	3.6e-06	0
bin	3.7e-06	0
bin	3.8e-06	0
bin	3.9e-06	0
bin	4e-06	0
bin	4.1e-06	0
bin	4.2e-06	0
bin	4.3e-06	0
bin	4.4e-06	0
bin	4.5e-06	0
bin	4.6e-06	0
bin	4.7e-06	0
bin	4.8e-06	0
bin	4.9e-06	0
bin	5e-06	0
bin	5.1e-06	0
bin	5.2e-06	0
bin	5.3e-06	0
bin	5.4e-06	0
bin	5.5e-06	0
bin	5.6e-06	0
bin	5.7e-06	0
bin	5.8e-06	0
bin	5.9e-06	0
bin	6e-06	0
bin	6.1e-06	0
bin	6.2e-06	0
bin	6.3e-06	0
bin	6.4e-06	0
bin	6.5e-06	0
bin	6.6e-06	0
bin	6.7e-06	6
bin	6.8e-06	0
bin	6.9e-06	0
bin	7e-06	0
bin	7.1e-06	0
bin	7.2e-06	0
bin	7.3e-06	0
bin	7.4e-06	0
bin	7.5e-06	0
bin	7.6e-06	0
bin	7.7e-06	0
bin	7.8e-06	0
bin	7.9e-06	0
bin	8e-06	0
bin	8.1e-06	0
bin	8.2e-06	0
bin	8.3e-06	0
bin	8.4e-06	0
scalar NetworkWithShapingAndPolicing.H2.eth[0].mac.queue.dataQueue queueLength:max 1
attr interpolationmode sample-hold
attr source "count(packetPushed) - count(packetPopped) - count(packetRemoved) - count(packetDropped)"
attr title "queue length, max"
scalar NetworkWithShapingAndPolicing.H2.eth[0].mac.queue.dataQueue queueLength:timeavg 3.228510239154e-08
attr interpolationmode sample-hold
attr source "count(packetPushed) - count(packetPopped) - count(packetRemoved) - count(packetDropped)"
attr title "queue length, timeavg"
scalar NetworkWithShapingAndPolicing.H2.eth[0].mac.queue.dataQueue packetPushed:count 42
attr interpolationmode none
attr title "packet pushed, count"
scalar NetworkWithShapingAndPolicing.H2.eth[0].mac.queue.dataQueue packetPushed:sum(packetBytes) 3534
attr interpolationmode none
attr title "packet pushed, sum(packetBytes)"
scalar NetworkWithShapingAndPolicing.H2.eth[0].mac.queue.dataQueue packetDropQueueOverflow:count 0
attr interpolationmode none
attr source packetDropReasonIsQueueOverflow(packetDropped)
attr title "packet drops: queue overflow, count"
scalar NetworkWithShapingAndPolicing.H2.eth[0].mac.queue.dataQueue packetDropQueueOverflow:sum(packetBytes) 0
attr interpolationmode none
attr source packetDropReasonIsQueueOverflow(packetDropped)
attr title "packet drops: queue overflow, sum(packetBytes)"
scalar NetworkWithShapingAndPolicing.H2.eth[0].mac.queue.dataQueue packetRemoved:count 0
attr interpolationmode none
attr title "packets removed, count"
scalar NetworkWithShapingAndPolicing.H2.eth[0].mac.queue.dataQueue packetRemoved:sum(packetBytes) 0
attr interpolationmode none
attr title "packets removed, sum(packetBytes)"
scalar NetworkWithShapingAndPolicing.H2.eth[0].mac.queue.scheduler packetPopped:count 42
attr interpolationmode none
attr title "packets popped, count"
scalar NetworkWithShapingAndPolicing.H2.eth[0].mac.queue.scheduler packetPopped:sum(packetBytes) 3534
attr interpolationmode none
attr title "packets popped, sum(packetBytes)"
scalar NetworkWithShapingAndPolicing.H2.eth[0].mac.queue packetPopped:count 42
attr interpolationmode none
attr source localSignal(packetPopped)
attr title "packets popped, count"
scalar NetworkWithShapingAndPolicing.H2.eth[0].mac.queue packetPopped:sum(packetBytes) 3534
attr interpolationmode none
attr source localSignal(packetPopped)
attr title "packets popped, sum(packetBytes)"
statistic NetworkWithShapingAndPolicing.H2.eth[0].mac.queue queueingTime:histogram
field count 126
field mean 9.6e-07
field stddev 2.3608974564771e-06
field min 0
field max 6.72e-06
field sum 0.00012096
field sqrsum 8.128512e-10
attr interpolationmode none
attr source queueingTime(packetPopped)
attr title "queueing times, histogram"
attr unit s
bin	-inf	0
bin	0	108
bin	1e-07	0
bin	2e-07	0
bin	3e-07	0
bin	4e-07	0
bin	5e-07	0
bin	6e-07	0
bin	7e-07	0
bin	8e-07	0
bin	9e-07	0
bin	1e-06	0
bin	1.1e-06	0
bin	1.2e-06	0
bin	1.3e-06	0
bin	1.4e-06	0
bin	1.5e-06	0
bin	1.6e-06	0
bin	1.7e-06	0
bin	1.8e-06	0
bin	1.9e-06	0
bin	2e-06	0
bin	2.1e-06	0
bin	2.2e-06	0
bin	2.3e-06	0
bin	2.4e-06	0
bin	2.5e-06	0
bin	2.6e-06	0
bin	2.7e-06	0
bin	2.8e-06	0
bin	2.9e-06	0
bin	3e-06	0
bin	3.1e-06	0
bin	3.2e-06	0
bin	3.3e-06	0
bin	3.4e-06	0
bin	3.5e-06	0
bin	3.6e-06	0
bin	3.7e-06	0
bin	3.8e-06	0
bin	3.9e-06	0
bin	4e-06	0
bin	4.1e-06	0
bin	4.2e-06	0
bin	4.3e-06	0
bin	4.4e-06	0
bin	4.5e-06	0
bin	4.6e-06	0
bin	4.7e-06	0
bin	4.8e-06	0
bin	4.9e-06	0
bin	5e-06	0
bin	5.1e-06	0
bin	5.2e-06	0
bin	5.3e-06	0
bin	5.4e-06	0
bin	5.5e-06	0
bin	5.6e-06	0
bin	5.7e-06	0
bin	5.8e-06	0
bin	5.9e-06	0
bin	6e-06	0
bin	6.1e-06	0
bin	6.2e-06	0
bin	6.3e-06	0
bin	6.4e-06	0
bin	6.5e-06	0
bin	6.6e-06	0
bin	6.7e-06	18
bin	6.8e-06	0
bin	6.9e-06	0
bin	7e-06	0
bin	7.1e-06	0
bin	7.2e-06	0
bin	7.3e-06	0
bin	7.4e-06	0
bin	7.5e-06	0
bin	7.6e-06	0
bin	7.7e-06	0
bin	7.8e-06	0
bin	7.9e-06	0
bin	8e-06	0
bin	8.1e-06	0
bin	8.2e-06	0
bin	8.3e-06	0
bin	8.4e-06	0
scalar NetworkWithShapingAndPolicing.H2.eth[0].mac.queue queueLength:max 1
attr interpolationmode sample-hold
attr source "count(localSignal(packetPushed)) - count(localSignal(packetPopped)) - count(localSignal(packetRemoved)) - count(packetDropped)"
attr title "queue length, max"
scalar NetworkWithShapingAndPolicing.H2.eth[0].mac.queue queueLength:timeavg 3.228510239154e-08
attr interpolationmode sample-hold
attr source "count(localSignal(packetPushed)) - count(localSignal(packetPopped)) - count(localSignal(packetRemoved)) - count(packetDropped)"
attr title "queue length, timeavg"
scalar NetworkWithShapingAndPolicing.H2.eth[0].mac.queue packetPushed:count 42
attr interpolationmode none
attr source localSignal(packetPushed)
attr title "packets pushed, count"
scalar NetworkWithShapingAndPolicing.H2.eth[0].mac.queue packetPushed:sum(packetBytes) 3534
attr interpolationmode none
attr source localSignal(packetPushed)
attr title "packets pushed, sum(packetBytes)"
scalar NetworkWithShapingAndPolicing.H2.eth[0].mac.queue packetDropQueueOverflow:count 0
attr interpolationmode none
attr source packetDropReasonIsQueueOverflow(packetDropped)
attr title "packets dropped: queue overflow, count"
scalar NetworkWithShapingAndPolicing.H2.eth[0].mac.queue packetDropQueueOverflow:sum(packetBytes) 0
attr interpolationmode none
attr source packetDropReasonIsQueueOverflow(packetDropped)
attr title "packets dropped: queue overflow, sum(packetBytes)"
scalar NetworkWithShapingAndPolicing.H2.eth[0].mac.queue packetRemoved:count 0
attr interpolationmode none
attr source localSignal(packetRemoved)
attr title "packets removed, count"
scalar NetworkWithShapingAndPolicing.H2.eth[0].mac.queue packetRemoved:sum(packetBytes) 0
attr interpolationmode none
attr source localSignal(packetRemoved)
attr title "packets removed, sum(packetBytes)"
scalar NetworkWithShapingAndPolicing.H2.eth[0].mac "simulated time" 1250
scalar NetworkWithShapingAndPolicing.H2.eth[0].mac full-duplex 1
scalar NetworkWithShapingAndPolicing.H2.eth[0].mac "frames/sec sent" 0.0336
scalar NetworkWithShapingAndPolicing.H2.eth[0].mac "frames/sec rcvd" 1.3608
scalar NetworkWithShapingAndPolicing.H2.eth[0].mac "bits/sec sent" 22.6176
scalar NetworkWithShapingAndPolicing.H2.eth[0].mac "bits/sec rcvd" 4084.8512
scalar NetworkWithShapingAndPolicing.H2.eth[0].mac "rx channel idle (%)" 100
scalar NetworkWithShapingAndPolicing.H2.eth[0].mac "rx channel utilization (%)" 0
scalar NetworkWithShapingAndPolicing.H2.eth[0].mac rxPausePkUnits:count 0
attr interpolationmode none
attr title "pause units received, count"
scalar NetworkWithShapingAndPolicing.H2.eth[0].mac rxPausePkUnits:sum 0
attr interpolationmode none
attr title "pause units received, sum"
scalar NetworkWithShapingAndPolicing.H2.eth[0].mac txPausePkUnits:count 0
attr interpolationmode none
attr title "pause units sent, count"
scalar NetworkWithShapingAndPolicing.H2.eth[0].mac txPausePkUnits:sum 0
attr interpolationmode none
attr title "pause units sent, sum"
scalar NetworkWithShapingAndPolicing.H2.eth[0].mac rxPkOk:count 1701
attr interpolationmode none
attr source rxPkOk
attr title "packets received OK, count"
scalar NetworkWithShapingAndPolicing.H2.eth[0].mac rxPkOk:sum(packetBytes) 638258
attr interpolationmode none
attr source rxPkOk
attr title "packets received OK, sum(packetBytes)"
scalar NetworkWithShapingAndPolicing.H2.eth[0].mac txPk:count 42
attr interpolationmode none
attr source packetSentToLower
attr title "packets transmitted, count"
scalar NetworkWithShapingAndPolicing.H2.eth[0].mac txPk:sum(packetBytes) 3534
attr interpolationmode none
attr source packetSentToLower
attr title "packets transmitted, sum(packetBytes)"
scalar NetworkWithShapingAndPolicing.H2.eth[0].mac packetReceivedFromUpper:count 42
attr interpolationmode none
attr source packetReceivedFromUpper
attr title "packet bytes from higher layer, count"
scalar NetworkWithShapingAndPolicing.H2.eth[0].mac packetReceivedFromUpper:sum(packetBytes) 3232
attr interpolationmode none
attr source packetReceivedFromUpper
attr title "packet bytes from higher layer, sum(packetBytes)"
scalar NetworkWithShapingAndPolicing.H2.eth[0].mac passedUpPk:count 1701
attr interpolationmode none
attr source packetSentToUpper
attr title "packets passed to higher layer, count"
scalar NetworkWithShapingAndPolicing.H2.eth[0].mac passedUpPk:sum(packetBytes) 638258
attr interpolationmode none
attr source packetSentToUpper
attr title "packets passed to higher layer, sum(packetBytes)"
scalar NetworkWithShapingAndPolicing.H2.eth[0].mac packetDropIncorrectlyReceived:count 0
attr interpolationmode none
attr source packetDropReasonIsIncorrectlyReceived(packetDropped)
attr title "packet drop: incorrectly received, count"
scalar NetworkWithShapingAndPolicing.H2.eth[0].mac packetDropIncorrectlyReceived:sum(packetBytes) 0
attr interpolationmode none
attr source packetDropReasonIsIncorrectlyReceived(packetDropped)
attr title "packet drop: incorrectly received, sum(packetBytes)"
scalar NetworkWithShapingAndPolicing.H2.eth[0].mac packetDropInterfaceDown:count 0
attr interpolationmode none
attr source packetDropReasonIsInterfaceDown(packetDropped)
attr title "packet drop: interface down, count"
scalar NetworkWithShapingAndPolicing.H2.eth[0].mac packetDropInterfaceDown:sum(packetBytes) 0
attr interpolationmode none
attr source packetDropReasonIsInterfaceDown(packetDropped)
attr title "packet drop: interface down, sum(packetBytes)"
scalar NetworkWithShapingAndPolicing.H2.eth[0].mac packetDropNotAddressedToUs:count 0
attr interpolationmode none
attr source packetDropReasonIsNotAddressedToUs(packetDropped)
attr title "packet drop: not addressed to us, count"
scalar NetworkWithShapingAndPolicing.H2.eth[0].mac packetDropNotAddressedToUs:sum(packetBytes) 0
attr interpolationmode none
attr source packetDropReasonIsNotAddressedToUs(packetDropped)
attr title "packet drop: not addressed to us, sum(packetBytes)"
scalar NetworkWithShapingAndPolicing.H2.eth[0].encap pauseSent:count 0
attr title "pause sent, count"
scalar NetworkWithShapingAndPolicing.H2.eth[0].encap pauseSent:sum 0
attr title "pause sent, sum"
scalar NetworkWithShapingAndPolicing.H2.eth[0].encap decapPk:count 1701
attr interpolationmode none
attr source decapPk
attr title "packets decapsulated, count"
scalar NetworkWithShapingAndPolicing.H2.eth[0].encap decapPk:sum(packetBytes) 607640
attr interpolationmode none
attr source decapPk
attr title "packets decapsulated, sum(packetBytes)"
scalar NetworkWithShapingAndPolicing.H2.eth[0].encap encapPk:count 42
attr interpolationmode none
attr source encapPk
attr title "packets encapsulated, count"
scalar NetworkWithShapingAndPolicing.H2.eth[0].encap encapPk:sum(packetBytes) 2476
attr interpolationmode none
attr source encapPk
attr title "packets encapsulated, sum(packetBytes)"
scalar NetworkWithShapingAndPolicing.H2.ipv4.ip packetDropAddressResolutionFailed:count 0
attr interpolationmode none
attr source packetDropReasonIsAddressResolutionFailed(packetDropped)
attr title "packet drop: address resolution failed, count"
scalar NetworkWithShapingAndPolicing.H2.ipv4.ip packetDropAddressResolutionFailed:sum(packetBytes) 0
attr interpolationmode none
attr source packetDropReasonIsAddressResolutionFailed(packetDropped)
attr title "packet drop: address resolution failed, sum(packetBytes)"
scalar NetworkWithShapingAndPolicing.H2.ipv4.ip packetDropHopLimitReached:count 0
attr interpolationmode none
attr source packetDropReasonIsHopLimitReached(packetDropped)
attr title "packet drop: hop limit reached, count"
scalar NetworkWithShapingAndPolicing.H2.ipv4.ip packetDropHopLimitReached:sum(packetBytes) 0
attr interpolationmode none
attr source packetDropReasonIsHopLimitReached(packetDropped)
attr title "packet drop: hop limit reached, sum(packetBytes)"
scalar NetworkWithShapingAndPolicing.H2.ipv4.ip packetDropForwardingDisabled:count 0
attr interpolationmode none
attr source packetDropReasonIsForwardingDisabled(packetDropped)
attr title "packet drop: forwarding disabled, count"
scalar NetworkWithShapingAndPolicing.H2.ipv4.ip packetDropForwardingDisabled:sum(packetBytes) 0
attr interpolationmode none
attr source packetDropReasonIsForwardingDisabled(packetDropped)
attr title "packet drop: forwarding disabled, sum(packetBytes)"
scalar NetworkWithShapingAndPolicing.H2.ipv4.ip packetDropNoInterfaceFound:count 0
attr interpolationmode none
attr source packetDropReasonIsNoInterfaceFound(packetDropped)
attr title "packet drop: no interface found, count"
scalar NetworkWithShapingAndPolicing.H2.ipv4.ip packetDropNoInterfaceFound:sum(packetBytes) 0
attr interpolationmode none
attr source packetDropReasonIsNoInterfaceFound(packetDropped)
attr title "packet drop: no interface found, sum(packetBytes)"
scalar NetworkWithShapingAndPolicing.H2.ipv4.ip packetDropNoRouteFound:count 0
attr interpolationmode none
attr source packetDropReasonIsNoRouteFound(packetDropped)
attr title "packet drop: no route found, count"
scalar NetworkWithShapingAndPolicing.H2.ipv4.ip packetDropNoRouteFound:sum(packetBytes) 0
attr interpolationmode none
attr source packetDropReasonIsNoRouteFound(packetDropped)
attr title "packet drop: no route found, sum(packetBytes)"
scalar NetworkWithShapingAndPolicing.H2.ipv4.ip packetDropUndefined:count 0
attr interpolationmode none
attr source packetDropReasonIsUndefined(packetDropped)
attr title "packet drop: undefined, count"
scalar NetworkWithShapingAndPolicing.H2.ipv4.ip packetDropUndefined:sum(packetBytes) 0
attr interpolationmode none
attr source packetDropReasonIsUndefined(packetDropped)
attr title "packet drop: undefined, sum(packetBytes)"
scalar NetworkWithShapingAndPolicing.H2.ipv4.arp arpResolutionFailed:count 0
attr title "ARP failed resolutions, count"
scalar NetworkWithShapingAndPolicing.H2.ipv4.arp arpResolutionCompleted:count 11
attr title "ARP completed resolutions, count"
scalar NetworkWithShapingAndPolicing.H2.ipv4.arp arpResolutionInitiated:count 0
attr title "ARP initiated resolutions, count"
scalar NetworkWithShapingAndPolicing.H2.ipv4.arp arpReplySent:count 11
attr source arpReplySent
attr title "ARP replies sent, count"
scalar NetworkWithShapingAndPolicing.H2.ipv4.arp arpReplySent:sum(packetBytes) 308
attr source arpReplySent
attr title "ARP replies sent, sum(packetBytes)"
scalar NetworkWithShapingAndPolicing.H2.ipv4.arp arpRequestSent:count 0
attr source arpRequestSent
attr title "ARP request sent, count"
scalar NetworkWithShapingAndPolicing.H2.ipv4.arp arpRequestSent:sum(packetBytes) 0
attr source arpRequestSent
attr title "ARP request sent, sum(packetBytes)"
scalar NetworkWithShapingAndPolicing.H2.udp packetReceived:count 1550
attr interpolationmode none
attr source packetReceived
attr title "packets received, count"
scalar NetworkWithShapingAndPolicing.H2.udp packetReceived:sum(packetBytes) 567312
attr interpolationmode none
attr source packetReceived
attr title "packets received, sum(packetBytes)"
scalar NetworkWithShapingAndPolicing.H2.udp packetSent:count 0
attr interpolationmode none
attr source packetSent
attr title "packets sent, count"
scalar NetworkWithShapingAndPolicing.H2.udp packetSent:sum(packetBytes) 0
attr interpolationmode none
attr source packetSent
attr title "packets sent, sum(packetBytes)"
scalar NetworkWithShapingAndPolicing.H2.udp passedUpPk:count 1550
attr interpolationmode none
attr source packetSentToUpper
attr title "packets passed up, count"
scalar NetworkWithShapingAndPolicing.H2.udp droppedPkWrongPort:count 0
attr interpolationmode none
attr source packetDropReasonIsNoPortFound(packetDropped)
attr title "packets dropped (wrong port), count"
scalar NetworkWithShapingAndPolicing.H2.udp droppedPkBadChecksum:count 0
attr interpolationmode none
attr source packetDropReasonIsIncorrectlyReceived(packetDropped)
attr title "packets dropped (checksum error), count"
scalar NetworkWithShapingAndPolicing.H2.app[0] "Total sent" 0
scalar NetworkWithShapingAndPolicing.H2.app[0] "Total received" 388
scalar NetworkWithShapingAndPolicing.H2.app[0] "Total deleted" 0
scalar NetworkWithShapingAndPolicing.H2.app[0] packetReceived:count 388
attr interpolationmode none
attr source packetReceived
attr title "packets received, count"
scalar NetworkWithShapingAndPolicing.H2.app[0] packetReceived:sum(packetBytes) 66736
attr interpolationmode none
attr source packetReceived
attr title "packets received, sum(packetBytes)"
scalar NetworkWithShapingAndPolicing.H2.app[0] packetSent:count 0
attr interpolationmode none
attr source packetSent
attr title "packets sent, count"
scalar NetworkWithShapingAndPolicing.H2.app[0] packetSent:sum(packetBytes) 0
attr interpolationmode none
attr source packetSent
attr title "packets sent, sum(packetBytes)"
scalar NetworkWithShapingAndPolicing.H2.app[0] outOfOrderPk:count 283
attr interpolationmode none
attr source outOfOrderPk
attr title "packets received out of order, count"
scalar NetworkWithShapingAndPolicing.H2.app[0] outOfOrderPk:sum(packetBytes) 48676
attr interpolationmode none
attr source outOfOrderPk
attr title "packets received out of order, sum(packetBytes)"
scalar NetworkWithShapingAndPolicing.H2.app[1] packetReceived:count 879
attr interpolationmode none
attr source packetReceived
attr title "packets received, count"
scalar NetworkWithShapingAndPolicing.H2.app[1] packetReceived:sum(packetBytes) 439500
attr interpolationmode none
attr source packetReceived
attr title "packets received, sum(packetBytes)"
scalar NetworkWithShapingAndPolicing.H2.app[2] packetReceived:count 3
attr interpolationmode none
attr source packetReceived
attr title "packets received, count"
scalar NetworkWithShapingAndPolicing.H2.app[2] packetReceived:sum(packetBytes) 150
attr interpolationmode none
attr source packetReceived
attr title "packets received, sum(packetBytes)"
scalar NetworkWithShapingAndPolicing.H2.app[2] packetSent:count 3
attr interpolationmode none
attr source packetSent
attr title "packets sent, count"
scalar NetworkWithShapingAndPolicing.H2.app[2] packetSent:sum(packetBytes) 300
attr interpolationmode none
attr source packetSent
attr title "packets sent, sum(packetBytes)"

