file 86766843 1617512349                                        
version 2
run Exp3RoundRobinWithPolicingAndShaping-0-20210404-00:58:48-71596
attr configname Exp3RoundRobinWithPolicingAndShaping
attr datetime 20210404-00:58:48
attr experiment Exp3RoundRobinWithPolicingAndShaping
attr inifile omnetpp.ini
attr iterationvars ""
attr iterationvarsf ""
attr measurement ""
attr network NetworkWithShapingAndPolicing
attr processid 71596
attr repetition 0
attr replication #0
attr resultdir results
attr runnumber 0
attr seedset 0
param **.R*.ppp[*].ppp.queue.typename "\"DSQueue1\""
param **.R*.ppp[*].ppp.queue.packetCapacity 100
param **.R*.ppp[*].ppp.queue.*.packetCapacity 100
param **.R*.ppp[*].ppp.queue.wrr.weights "\"10 40 5 1 1\""
param **.H?.numApps 3
param **.H1.app[0].typename "\"UdpBasicBurst\""
param **.H1.app[0].destAddresses "\"H2\""
param **.H1.app[0].chooseDestAddrMode "\"once\""
param **.H1.app[0].destPort 1000
param **.H1.app[0].startTime uniform(1s,2s)
param **.H1.app[0].stopTime 1200s
param **.H1.app[0].messageLength 172B
param **.H1.app[0].burstDuration exponential(0.352s)
param **.H1.app[0].sleepDuration exponential(0.650s)
param **.H1.app[0].sendInterval 20ms
param **.H2.app[0].typename "\"UdpBasicBurst\""
param **.H2.app[0].localPort 1000
param **.H2.app[0].delayLimit 0ms
param **.H2.app[0].destAddresses "\"\""
param **.H2.app[0].chooseDestAddrMode "\"once\""
param **.H2.app[0].destPort 0
param **.H2.app[0].messageLength 0B
param **.H2.app[0].burstDuration 0s
param **.H2.app[0].sleepDuration 0s
param **.H2.app[0].sendInterval 0ms
param **.H1.app[1].typename "\"UdpBasicApp\""
param **.H1.app[1].destPort 2000
param **.H1.app[1].startTime uniform(1s,2s)
param **.H1.app[1].stopTime 1200s
param **.H1.app[1].sendInterval 40ms
param **.H1.app[1].messageLength 500B
param **.H1.app[1].destAddresses "\"H2\""
param **.H2.app[1].typename "\"UdpSink\""
param **.H2.app[1].localPort 2000
param **.H1.app[2].typename "\"TcpBasicClientApp\""
param **.H1.app[2].connectAddress "\"H2\""
param **.H1.app[2].connectPort 3000
param **.H1.app[2].numRequestsPerSession 1
param **.H1.app[2].requestLength 50B
param **.H1.app[2].replyLength 100B
param **.H1.app[2].thinkTime 40ms
param **.H1.app[2].idleInterval 10s
param **.H1.app[2].stopTime 1200s
param **.H2.app[2].typename "\"TcpGenericServerApp\""
param **.H2.app[2].localPort 3000
param **.edgeDatarate 32kbps
param **.coreDatarate 16kbps
param **.R1.eth[?].ingressTC.typename "\"TC1\""
param **.R15.eth[?].ingressTC.typename "\"TC1\""
param **.ingressTC.numClasses 3
param **.ingressTC.classifier.filters "xmldoc(\"filters.xml\", \"//experiment[@id='default']\")"
param **.ingressTC.marker.dscps "\"AF11 AF21 AF31 AF41 BE\""
param **.R8.ppp[2].egressTC.typename "\"TrafficConditioner\""
param **.R8.ppp[2].egressTC.efMeter.cir "\"70%\""
param **.R8.ppp[2].egressTC.efMeter.cbs 50KiB
param **.R8.ppp[2].egressTC.defaultMeter.cir "\"30%\""
param **.R8.ppp[2].egressTC.defaultMeter.cbs 2KiB
param **.R8.ppp[2].egressTC.defaultMeter.ebs 4KiB
param **.R9.ppp[0].ingressTC.typename "\"TrafficConditioner\""
param **.R9.ppp[0].ingressTC.efMeter.cir "\"50%\""
param **.R9.ppp[0].ingressTC.efMeter.cbs 40KiB
param **.R9.ppp[0].ingressTC.defaultMeter.cir "\"25%\""
param **.R9.ppp[0].ingressTC.defaultMeter.cbs 2KiB
param **.R9.ppp[0].ingressTC.defaultMeter.ebs 4KiB
param **.queue.typename "\"EtherQosQueue\""
param **.queue.dataQueue.typename "\"DropTailQueue\""
param **.queue.packetCapacity 100
param **.queue.dataQueue.packetCapacity 100
param **.R*.hasOspf true
param **.R*.ospf.ospfConfig "xmldoc(\"OSPFConfig.xml\")"

vector 0 NetworkWithShapingAndPolicing.R1.pppg$o[0].channel busy:vector ETV
attr interpolationmode sample-hold
attr source channelBusy
vector 1 NetworkWithShapingAndPolicing.R1.pppg$o[1].channel busy:vector ETV
attr interpolationmode sample-hold
attr source channelBusy
vector 2 NetworkWithShapingAndPolicing.R1.ethg$o[0].channel busy:vector ETV
attr interpolationmode sample-hold
attr source channelBusy
vector 3 NetworkWithShapingAndPolicing.R2.pppg$o[0].channel busy:vector ETV
attr interpolationmode sample-hold
attr source channelBusy
vector 4 NetworkWithShapingAndPolicing.R2.pppg$o[1].channel busy:vector ETV
attr interpolationmode sample-hold
attr source channelBusy
vector 5 NetworkWithShapingAndPolicing.R2.pppg$o[2].channel busy:vector ETV
attr interpolationmode sample-hold
attr source channelBusy
vector 6 NetworkWithShapingAndPolicing.R3.pppg$o[0].channel busy:vector ETV
attr interpolationmode sample-hold
attr source channelBusy
vector 7 NetworkWithShapingAndPolicing.R3.pppg$o[1].channel busy:vector ETV
attr interpolationmode sample-hold
attr source channelBusy
vector 8 NetworkWithShapingAndPolicing.R4.pppg$o[0].channel busy:vector ETV
attr interpolationmode sample-hold
attr source channelBusy
vector 9 NetworkWithShapingAndPolicing.R4.pppg$o[1].channel busy:vector ETV
attr interpolationmode sample-hold
attr source channelBusy
vector 10 NetworkWithShapingAndPolicing.R5.pppg$o[0].channel busy:vector ETV
attr interpolationmode sample-hold
attr source channelBusy
vector 11 NetworkWithShapingAndPolicing.R5.pppg$o[1].channel busy:vector ETV
attr interpolationmode sample-hold
attr source channelBusy
vector 12 NetworkWithShapingAndPolicing.R6.pppg$o[0].channel busy:vector ETV
attr interpolationmode sample-hold
attr source channelBusy
vector 13 NetworkWithShapingAndPolicing.R6.pppg$o[1].channel busy:vector ETV
attr interpolationmode sample-hold
attr source channelBusy
vector 14 NetworkWithShapingAndPolicing.R7.pppg$o[0].channel busy:vector ETV
attr interpolationmode sample-hold
attr source channelBusy
vector 15 NetworkWithShapingAndPolicing.R7.pppg$o[1].channel busy:vector ETV
attr interpolationmode sample-hold
attr source channelBusy
vector 16 NetworkWithShapingAndPolicing.R7.pppg$o[2].channel busy:vector ETV
attr interpolationmode sample-hold
attr source channelBusy
vector 17 NetworkWithShapingAndPolicing.R11.pppg$o[0].channel busy:vector ETV
attr interpolationmode sample-hold
attr source channelBusy
vector 18 NetworkWithShapingAndPolicing.R11.pppg$o[1].channel busy:vector ETV
attr interpolationmode sample-hold
attr source channelBusy
vector 19 NetworkWithShapingAndPolicing.R12.pppg$o[0].channel busy:vector ETV
attr interpolationmode sample-hold
attr source channelBusy
vector 20 NetworkWithShapingAndPolicing.R12.pppg$o[1].channel busy:vector ETV
attr interpolationmode sample-hold
attr source channelBusy
vector 21 NetworkWithShapingAndPolicing.R13.pppg$o[0].channel busy:vector ETV
attr interpolationmode sample-hold
attr source channelBusy
vector 22 NetworkWithShapingAndPolicing.R13.pppg$o[1].channel busy:vector ETV
attr interpolationmode sample-hold
attr source channelBusy
vector 23 NetworkWithShapingAndPolicing.R9.pppg$o[0].channel busy:vector ETV
attr interpolationmode sample-hold
attr source channelBusy
vector 24 NetworkWithShapingAndPolicing.R9.pppg$o[1].channel busy:vector ETV
attr interpolationmode sample-hold
attr source channelBusy
vector 25 NetworkWithShapingAndPolicing.R9.pppg$o[2].channel busy:vector ETV
attr interpolationmode sample-hold
attr source channelBusy
vector 26 NetworkWithShapingAndPolicing.R9.pppg$o[3].channel busy:vector ETV
attr interpolationmode sample-hold
attr source channelBusy
vector 27 NetworkWithShapingAndPolicing.R10.pppg$o[0].channel busy:vector ETV
attr interpolationmode sample-hold
attr source channelBusy
vector 28 NetworkWithShapingAndPolicing.R10.pppg$o[1].channel busy:vector ETV
attr interpolationmode sample-hold
attr source channelBusy
vector 29 NetworkWithShapingAndPolicing.R14.pppg$o[0].channel busy:vector ETV
attr interpolationmode sample-hold
attr source channelBusy
vector 30 NetworkWithShapingAndPolicing.R14.pppg$o[1].channel busy:vector ETV
attr interpolationmode sample-hold
attr source channelBusy
vector 31 NetworkWithShapingAndPolicing.R8.pppg$o[0].channel busy:vector ETV
attr interpolationmode sample-hold
attr source channelBusy
vector 32 NetworkWithShapingAndPolicing.R8.pppg$o[1].channel busy:vector ETV
attr interpolationmode sample-hold
attr source channelBusy
vector 33 NetworkWithShapingAndPolicing.R8.pppg$o[2].channel busy:vector ETV
attr interpolationmode sample-hold
attr source channelBusy
vector 34 NetworkWithShapingAndPolicing.R15.pppg$o[0].channel busy:vector ETV
attr interpolationmode sample-hold
attr source channelBusy
vector 35 NetworkWithShapingAndPolicing.R15.pppg$o[1].channel busy:vector ETV
attr interpolationmode sample-hold
attr source channelBusy
vector 36 NetworkWithShapingAndPolicing.R15.pppg$o[2].channel busy:vector ETV
attr interpolationmode sample-hold
attr source channelBusy
vector 37 NetworkWithShapingAndPolicing.R15.ethg$o[0].channel busy:vector ETV
attr interpolationmode sample-hold
attr source channelBusy
vector 38 NetworkWithShapingAndPolicing.H1.ethg$o[0].channel busy:vector ETV
attr interpolationmode sample-hold
attr source channelBusy
vector 39 NetworkWithShapingAndPolicing.H2.ethg$o[0].channel busy:vector ETV
attr interpolationmode sample-hold
attr source channelBusy
vector 40 NetworkWithShapingAndPolicing.R1.ppp[0].ppp transmissionState:vector ETV
attr interpolationmode sample-hold
attr source transmissionStateChanged
attr title "tx state, vector"
vector 41 NetworkWithShapingAndPolicing.R1.ppp[1].ppp transmissionState:vector ETV
attr interpolationmode sample-hold
attr source transmissionStateChanged
attr title "tx state, vector"
vector 42 NetworkWithShapingAndPolicing.R2.ppp[0].ppp transmissionState:vector ETV
attr interpolationmode sample-hold
attr source transmissionStateChanged
attr title "tx state, vector"
vector 43 NetworkWithShapingAndPolicing.R2.ppp[1].ppp transmissionState:vector ETV
attr interpolationmode sample-hold
attr source transmissionStateChanged
attr title "tx state, vector"
vector 44 NetworkWithShapingAndPolicing.R2.ppp[2].ppp transmissionState:vector ETV
attr interpolationmode sample-hold
attr source transmissionStateChanged
attr title "tx state, vector"
vector 45 NetworkWithShapingAndPolicing.R3.ppp[0].ppp transmissionState:vector ETV
attr interpolationmode sample-hold
attr source transmissionStateChanged
attr title "tx state, vector"
vector 46 NetworkWithShapingAndPolicing.R3.ppp[1].ppp transmissionState:vector ETV
attr interpolationmode sample-hold
attr source transmissionStateChanged
attr title "tx state, vector"
vector 47 NetworkWithShapingAndPolicing.R4.ppp[0].ppp transmissionState:vector ETV
attr interpolationmode sample-hold
attr source transmissionStateChanged
attr title "tx state, vector"
vector 48 NetworkWithShapingAndPolicing.R4.ppp[1].ppp transmissionState:vector ETV
attr interpolationmode sample-hold
attr source transmissionStateChanged
attr title "tx state, vector"
vector 49 NetworkWithShapingAndPolicing.R5.ppp[0].ppp transmissionState:vector ETV
attr interpolationmode sample-hold
attr source transmissionStateChanged
attr title "tx state, vector"
vector 50 NetworkWithShapingAndPolicing.R5.ppp[1].ppp transmissionState:vector ETV
attr interpolationmode sample-hold
attr source transmissionStateChanged
attr title "tx state, vector"
vector 51 NetworkWithShapingAndPolicing.R6.ppp[0].ppp transmissionState:vector ETV
attr interpolationmode sample-hold
attr source transmissionStateChanged
attr title "tx state, vector"
vector 52 NetworkWithShapingAndPolicing.R6.ppp[1].ppp transmissionState:vector ETV
attr interpolationmode sample-hold
attr source transmissionStateChanged
attr title "tx state, vector"
vector 53 NetworkWithShapingAndPolicing.R7.ppp[0].ppp transmissionState:vector ETV
attr interpolationmode sample-hold
attr source transmissionStateChanged
attr title "tx state, vector"
vector 54 NetworkWithShapingAndPolicing.R7.ppp[1].ppp transmissionState:vector ETV
attr interpolationmode sample-hold
attr source transmissionStateChanged
attr title "tx state, vector"
vector 55 NetworkWithShapingAndPolicing.R7.ppp[2].ppp transmissionState:vector ETV
attr interpolationmode sample-hold
attr source transmissionStateChanged
attr title "tx state, vector"
vector 56 NetworkWithShapingAndPolicing.R11.ppp[0].ppp transmissionState:vector ETV
attr interpolationmode sample-hold
attr source transmissionStateChanged
attr title "tx state, vector"
vector 57 NetworkWithShapingAndPolicing.R11.ppp[1].ppp transmissionState:vector ETV
attr interpolationmode sample-hold
attr source transmissionStateChanged
attr title "tx state, vector"
vector 58 NetworkWithShapingAndPolicing.R12.ppp[0].ppp transmissionState:vector ETV
attr interpolationmode sample-hold
attr source transmissionStateChanged
attr title "tx state, vector"
vector 59 NetworkWithShapingAndPolicing.R12.ppp[1].ppp transmissionState:vector ETV
attr interpolationmode sample-hold
attr source transmissionStateChanged
attr title "tx state, vector"
vector 60 NetworkWithShapingAndPolicing.R13.ppp[0].ppp transmissionState:vector ETV
attr interpolationmode sample-hold
attr source transmissionStateChanged
attr title "tx state, vector"
vector 61 NetworkWithShapingAndPolicing.R13.ppp[1].ppp transmissionState:vector ETV
attr interpolationmode sample-hold
attr source transmissionStateChanged
attr title "tx state, vector"
vector 62 NetworkWithShapingAndPolicing.R9.ppp[0].ppp transmissionState:vector ETV
attr interpolationmode sample-hold
attr source transmissionStateChanged
attr title "tx state, vector"
vector 63 NetworkWithShapingAndPolicing.R9.ppp[1].ppp transmissionState:vector ETV
attr interpolationmode sample-hold
attr source transmissionStateChanged
attr title "tx state, vector"
vector 64 NetworkWithShapingAndPolicing.R9.ppp[2].ppp transmissionState:vector ETV
attr interpolationmode sample-hold
attr source transmissionStateChanged
attr title "tx state, vector"
vector 65 NetworkWithShapingAndPolicing.R9.ppp[3].ppp transmissionState:vector ETV
attr interpolationmode sample-hold
attr source transmissionStateChanged
attr title "tx state, vector"
vector 66 NetworkWithShapingAndPolicing.R10.ppp[0].ppp transmissionState:vector ETV
attr interpolationmode sample-hold
attr source transmissionStateChanged
attr title "tx state, vector"
vector 67 NetworkWithShapingAndPolicing.R10.ppp[1].ppp transmissionState:vector ETV
attr interpolationmode sample-hold
attr source transmissionStateChanged
attr title "tx state, vector"
vector 68 NetworkWithShapingAndPolicing.R14.ppp[0].ppp transmissionState:vector ETV
attr interpolationmode sample-hold
attr source transmissionStateChanged
attr title "tx state, vector"
vector 69 NetworkWithShapingAndPolicing.R14.ppp[1].ppp transmissionState:vector ETV
attr interpolationmode sample-hold
attr source transmissionStateChanged
attr title "tx state, vector"
vector 70 NetworkWithShapingAndPolicing.R8.ppp[0].ppp transmissionState:vector ETV
attr interpolationmode sample-hold
attr source transmissionStateChanged
attr title "tx state, vector"
vector 71 NetworkWithShapingAndPolicing.R8.ppp[1].ppp transmissionState:vector ETV
attr interpolationmode sample-hold
attr source transmissionStateChanged
attr title "tx state, vector"
vector 72 NetworkWithShapingAndPolicing.R8.ppp[2].ppp transmissionState:vector ETV
attr interpolationmode sample-hold
attr source transmissionStateChanged
attr title "tx state, vector"
vector 73 NetworkWithShapingAndPolicing.R15.ppp[0].ppp transmissionState:vector ETV
attr interpolationmode sample-hold
attr source transmissionStateChanged
attr title "tx state, vector"
vector 74 NetworkWithShapingAndPolicing.R15.ppp[1].ppp transmissionState:vector ETV
attr interpolationmode sample-hold
attr source transmissionStateChanged
attr title "tx state, vector"
vector 75 NetworkWithShapingAndPolicing.R15.ppp[2].ppp transmissionState:vector ETV
attr interpolationmode sample-hold
attr source transmissionStateChanged
attr title "tx state, vector"
vector 76 NetworkWithShapingAndPolicing.R12.ppp[0].ppp rcvdPkFromHl:vector(packetBytes) ETV
attr interpolationmode none
attr source packetReceivedFromUpper
attr title "packets received from higher layer, vector(packetBytes)"
vector 77 NetworkWithShapingAndPolicing.R12.ppp[0].ppp.queue packetPushed:vector(packetBytes) ETV
attr interpolationmode none
attr source localSignal(packetPushed)
attr title "packets pushed, vector(packetBytes)"
vector 78 NetworkWithShapingAndPolicing.R12.ppp[0].ppp.queue queueLength:vector ETV
attr interpolationmode sample-hold
attr source "count(localSignal(packetPushed)) - count(localSignal(packetPopped)) - count(localSignal(packetRemoved)) - count(packetDropped)"
attr title "queue length, vector"
vector 79 NetworkWithShapingAndPolicing.R12.ppp[0].ppp.queue.classifier pkClass:vector ETV
attr interpolationmode none
attr source pkClass
attr title "packet class, vector"
vector 80 NetworkWithShapingAndPolicing.R12.ppp[0].ppp.queue.beQueue packetPushed:vector(packetBytes) ETV
attr interpolationmode none
attr title "packet pushed, vector(packetBytes)"
vector 81 NetworkWithShapingAndPolicing.R12.ppp[0].ppp.queue.beQueue packetPopped:vector(packetBytes) ETV
attr interpolationmode none
attr title "packet popped, vector(packetBytes)"
vector 82 NetworkWithShapingAndPolicing.R12.ppp[0].ppp.queue.beQueue queueingTime:vector ETV
attr interpolationmode none
attr source queueingTime(packetPopped)
attr title "queueing times, vector"
attr unit s
vector 83 NetworkWithShapingAndPolicing.R12.ppp[0].ppp.queue queueingTime:vector ETV
attr interpolationmode none
attr source queueingTime(packetPopped)
attr title "queueing times, vector"
attr unit s
vector 84 NetworkWithShapingAndPolicing.R12.ppp[0].ppp.queue.wrr packetPopped:vector(packetBytes) ETV
attr interpolationmode none
attr title "packets popped, vector(packetBytes)"
vector 85 NetworkWithShapingAndPolicing.R12.ppp[0].ppp.queue.priority packetPopped:vector(packetBytes) ETV
attr interpolationmode none
attr title "packets popped, vector(packetBytes)"
vector 86 NetworkWithShapingAndPolicing.R12.ppp[0].ppp.queue packetPopped:vector(packetBytes) ETV
attr interpolationmode none
attr source localSignal(packetPopped)
attr title "packets popped, vector(packetBytes)"
vector 87 NetworkWithShapingAndPolicing.R12.ppp[0].ppp txPk:vector(packetBytes) ETV
attr interpolationmode none
attr source packetSentToLower
attr title "packets transmitted, vector(packetBytes)"
vector 88 NetworkWithShapingAndPolicing.R9.ppp[1].ppp rcvdPkFromHl:vector(packetBytes) ETV
attr interpolationmode none
attr source packetReceivedFromUpper
attr title "packets received from higher layer, vector(packetBytes)"
vector 89 NetworkWithShapingAndPolicing.R9.ppp[1].ppp.queue packetPushed:vector(packetBytes) ETV
attr interpolationmode none
attr source localSignal(packetPushed)
attr title "packets pushed, vector(packetBytes)"
vector 90 NetworkWithShapingAndPolicing.R9.ppp[1].ppp.queue queueLength:vector ETV
attr interpolationmode sample-hold
attr source "count(localSignal(packetPushed)) - count(localSignal(packetPopped)) - count(localSignal(packetRemoved)) - count(packetDropped)"
attr title "queue length, vector"
vector 91 NetworkWithShapingAndPolicing.R9.ppp[1].ppp.queue.classifier pkClass:vector ETV
attr interpolationmode none
attr source pkClass
attr title "packet class, vector"
vector 92 NetworkWithShapingAndPolicing.R9.ppp[1].ppp.queue.beQueue packetPushed:vector(packetBytes) ETV
attr interpolationmode none
attr title "packet pushed, vector(packetBytes)"
vector 93 NetworkWithShapingAndPolicing.R9.ppp[1].ppp.queue.beQueue packetPopped:vector(packetBytes) ETV
attr interpolationmode none
attr title "packet popped, vector(packetBytes)"
vector 94 NetworkWithShapingAndPolicing.R9.ppp[1].ppp.queue.beQueue queueingTime:vector ETV
attr interpolationmode none
attr source queueingTime(packetPopped)
attr title "queueing times, vector"
attr unit s
vector 95 NetworkWithShapingAndPolicing.R9.ppp[1].ppp.queue queueingTime:vector ETV
attr interpolationmode none
attr source queueingTime(packetPopped)
attr title "queueing times, vector"
attr unit s
vector 96 NetworkWithShapingAndPolicing.R9.ppp[1].ppp.queue.wrr packetPopped:vector(packetBytes) ETV
attr interpolationmode none
attr title "packets popped, vector(packetBytes)"
vector 97 NetworkWithShapingAndPolicing.R9.ppp[1].ppp.queue.priority packetPopped:vector(packetBytes) ETV
attr interpolationmode none
attr title "packets popped, vector(packetBytes)"
vector 98 NetworkWithShapingAndPolicing.R9.ppp[1].ppp.queue packetPopped:vector(packetBytes) ETV
attr interpolationmode none
attr source localSignal(packetPopped)
attr title "packets popped, vector(packetBytes)"
vector 99 NetworkWithShapingAndPolicing.R9.ppp[1].ppp txPk:vector(packetBytes) ETV
attr interpolationmode none
attr source packetSentToLower
attr title "packets transmitted, vector(packetBytes)"
vector 100 NetworkWithShapingAndPolicing.R5.ppp[0].ppp rcvdPkFromHl:vector(packetBytes) ETV
attr interpolationmode none
attr source packetReceivedFromUpper
attr title "packets received from higher layer, vector(packetBytes)"
vector 101 NetworkWithShapingAndPolicing.R5.ppp[0].ppp.queue packetPushed:vector(packetBytes) ETV
attr interpolationmode none
attr source localSignal(packetPushed)
attr title "packets pushed, vector(packetBytes)"
vector 102 NetworkWithShapingAndPolicing.R5.ppp[0].ppp.queue queueLength:vector ETV
attr interpolationmode sample-hold
attr source "count(localSignal(packetPushed)) - count(localSignal(packetPopped)) - count(localSignal(packetRemoved)) - count(packetDropped)"
attr title "queue length, vector"
vector 103 NetworkWithShapingAndPolicing.R5.ppp[0].ppp.queue.classifier pkClass:vector ETV
attr interpolationmode none
attr source pkClass
attr title "packet class, vector"
vector 104 NetworkWithShapingAndPolicing.R5.ppp[0].ppp.queue.beQueue packetPushed:vector(packetBytes) ETV
attr interpolationmode none
attr title "packet pushed, vector(packetBytes)"
vector 105 NetworkWithShapingAndPolicing.R5.ppp[0].ppp.queue.beQueue packetPopped:vector(packetBytes) ETV
attr interpolationmode none
attr title "packet popped, vector(packetBytes)"
vector 106 NetworkWithShapingAndPolicing.R5.ppp[0].ppp.queue.beQueue queueingTime:vector ETV
attr interpolationmode none
attr source queueingTime(packetPopped)
attr title "queueing times, vector"
attr unit s
vector 107 NetworkWithShapingAndPolicing.R5.ppp[0].ppp.queue queueingTime:vector ETV
attr interpolationmode none
attr source queueingTime(packetPopped)
attr title "queueing times, vector"
attr unit s
vector 108 NetworkWithShapingAndPolicing.R5.ppp[0].ppp.queue.wrr packetPopped:vector(packetBytes) ETV
attr interpolationmode none
attr title "packets popped, vector(packetBytes)"
vector 109 NetworkWithShapingAndPolicing.R5.ppp[0].ppp.queue.priority packetPopped:vector(packetBytes) ETV
attr interpolationmode none
attr title "packets popped, vector(packetBytes)"
vector 110 NetworkWithShapingAndPolicing.R5.ppp[0].ppp.queue packetPopped:vector(packetBytes) ETV
attr interpolationmode none
attr source localSignal(packetPopped)
attr title "packets popped, vector(packetBytes)"
vector 111 NetworkWithShapingAndPolicing.R5.ppp[0].ppp txPk:vector(packetBytes) ETV
attr interpolationmode none
attr source packetSentToLower
attr title "packets transmitted, vector(packetBytes)"
vector 112 NetworkWithShapingAndPolicing.R13.ppp[0].ppp rcvdPkFromHl:vector(packetBytes) ETV
attr interpolationmode none
attr source packetReceivedFromUpper
attr title "packets received from higher layer, vector(packetBytes)"
vector 113 NetworkWithShapingAndPolicing.R13.ppp[0].ppp.queue packetPushed:vector(packetBytes) ETV
attr interpolationmode none
attr source localSignal(packetPushed)
attr title "packets pushed, vector(packetBytes)"
vector 114 NetworkWithShapingAndPolicing.R13.ppp[0].ppp.queue queueLength:vector ETV
attr interpolationmode sample-hold
attr source "count(localSignal(packetPushed)) - count(localSignal(packetPopped)) - count(localSignal(packetRemoved)) - count(packetDropped)"
attr title "queue length, vector"
vector 115 NetworkWithShapingAndPolicing.R13.ppp[0].ppp.queue.classifier pkClass:vector ETV
attr interpolationmode none
attr source pkClass
attr title "packet class, vector"
vector 116 NetworkWithShapingAndPolicing.R13.ppp[0].ppp.queue.beQueue packetPushed:vector(packetBytes) ETV
attr interpolationmode none
attr title "packet pushed, vector(packetBytes)"
vector 117 NetworkWithShapingAndPolicing.R13.ppp[0].ppp.queue.beQueue packetPopped:vector(packetBytes) ETV
attr interpolationmode none
attr title "packet popped, vector(packetBytes)"
vector 118 NetworkWithShapingAndPolicing.R13.ppp[0].ppp.queue.beQueue queueingTime:vector ETV
attr interpolationmode none
attr source queueingTime(packetPopped)
attr title "queueing times, vector"
attr unit s
vector 119 NetworkWithShapingAndPolicing.R13.ppp[0].ppp.queue queueingTime:vector ETV
attr interpolationmode none
attr source queueingTime(packetPopped)
attr title "queueing times, vector"
attr unit s
vector 120 NetworkWithShapingAndPolicing.R13.ppp[0].ppp.queue.wrr packetPopped:vector(packetBytes) ETV
attr interpolationmode none
attr title "packets popped, vector(packetBytes)"
vector 121 NetworkWithShapingAndPolicing.R13.ppp[0].ppp.queue.priority packetPopped:vector(packetBytes) ETV
attr interpolationmode none
attr title "packets popped, vector(packetBytes)"
vector 122 NetworkWithShapingAndPolicing.R13.ppp[0].ppp.queue packetPopped:vector(packetBytes) ETV
attr interpolationmode none
attr source localSignal(packetPopped)
attr title "packets popped, vector(packetBytes)"
vector 123 NetworkWithShapingAndPolicing.R13.ppp[0].ppp txPk:vector(packetBytes) ETV
attr interpolationmode none
attr source packetSentToLower
attr title "packets transmitted, vector(packetBytes)"
vector 124 NetworkWithShapingAndPolicing.R2.ppp[1].ppp rcvdPkFromHl:vector(packetBytes) ETV
attr interpolationmode none
attr source packetReceivedFromUpper
attr title "packets received from higher layer, vector(packetBytes)"
vector 125 NetworkWithShapingAndPolicing.R2.ppp[1].ppp.queue packetPushed:vector(packetBytes) ETV
attr interpolationmode none
attr source localSignal(packetPushed)
attr title "packets pushed, vector(packetBytes)"
vector 126 NetworkWithShapingAndPolicing.R2.ppp[1].ppp.queue queueLength:vector ETV
attr interpolationmode sample-hold
attr source "count(localSignal(packetPushed)) - count(localSignal(packetPopped)) - count(localSignal(packetRemoved)) - count(packetDropped)"
attr title "queue length, vector"
vector 127 NetworkWithShapingAndPolicing.R2.ppp[1].ppp.queue.classifier pkClass:vector ETV
attr interpolationmode none
attr source pkClass
attr title "packet class, vector"
vector 128 NetworkWithShapingAndPolicing.R2.ppp[1].ppp.queue.beQueue packetPushed:vector(packetBytes) ETV
attr interpolationmode none
attr title "packet pushed, vector(packetBytes)"
vector 129 NetworkWithShapingAndPolicing.R2.ppp[1].ppp.queue.beQueue packetPopped:vector(packetBytes) ETV
attr interpolationmode none
attr title "packet popped, vector(packetBytes)"
vector 130 NetworkWithShapingAndPolicing.R2.ppp[1].ppp.queue.beQueue queueingTime:vector ETV
attr interpolationmode none
attr source queueingTime(packetPopped)
attr title "queueing times, vector"
attr unit s
vector 131 NetworkWithShapingAndPolicing.R2.ppp[1].ppp.queue queueingTime:vector ETV
attr interpolationmode none
attr source queueingTime(packetPopped)
attr title "queueing times, vector"
attr unit s
vector 132 NetworkWithShapingAndPolicing.R2.ppp[1].ppp.queue.wrr packetPopped:vector(packetBytes) ETV
attr interpolationmode none
attr title "packets popped, vector(packetBytes)"
vector 133 NetworkWithShapingAndPolicing.R2.ppp[1].ppp.queue.priority packetPopped:vector(packetBytes) ETV
attr interpolationmode none
attr title "packets popped, vector(packetBytes)"
vector 134 NetworkWithShapingAndPolicing.R2.ppp[1].ppp.queue packetPopped:vector(packetBytes) ETV
attr interpolationmode none
attr source localSignal(packetPopped)
attr title "packets popped, vector(packetBytes)"
vector 135 NetworkWithShapingAndPolicing.R2.ppp[1].ppp txPk:vector(packetBytes) ETV
attr interpolationmode none
attr source packetSentToLower
attr title "packets transmitted, vector(packetBytes)"
vector 136 NetworkWithShapingAndPolicing.R15.ppp[2].ppp rcvdPkFromHl:vector(packetBytes) ETV
attr interpolationmode none
attr source packetReceivedFromUpper
attr title "packets received from higher layer, vector(packetBytes)"
vector 137 NetworkWithShapingAndPolicing.R15.ppp[2].ppp.queue packetPushed:vector(packetBytes) ETV
attr interpolationmode none
attr source localSignal(packetPushed)
attr title "packets pushed, vector(packetBytes)"
vector 138 NetworkWithShapingAndPolicing.R15.ppp[2].ppp.queue queueLength:vector ETV
attr interpolationmode sample-hold
attr source "count(localSignal(packetPushed)) - count(localSignal(packetPopped)) - count(localSignal(packetRemoved)) - count(packetDropped)"
attr title "queue length, vector"
vector 139 NetworkWithShapingAndPolicing.R15.ppp[2].ppp.queue.classifier pkClass:vector ETV
attr interpolationmode none
attr source pkClass
attr title "packet class, vector"
vector 140 NetworkWithShapingAndPolicing.R15.ppp[2].ppp.queue.beQueue packetPushed:vector(packetBytes) ETV
attr interpolationmode none
attr title "packet pushed, vector(packetBytes)"
vector 141 NetworkWithShapingAndPolicing.R15.ppp[2].ppp.queue.beQueue packetPopped:vector(packetBytes) ETV
attr interpolationmode none
attr title "packet popped, vector(packetBytes)"
vector 142 NetworkWithShapingAndPolicing.R15.ppp[2].ppp.queue.beQueue queueingTime:vector ETV
attr interpolationmode none
attr source queueingTime(packetPopped)
attr title "queueing times, vector"
attr unit s
vector 143 NetworkWithShapingAndPolicing.R15.ppp[2].ppp.queue queueingTime:vector ETV
attr interpolationmode none
attr source queueingTime(packetPopped)
attr title "queueing times, vector"
attr unit s
vector 144 NetworkWithShapingAndPolicing.R15.ppp[2].ppp.queue.wrr packetPopped:vector(packetBytes) ETV
attr interpolationmode none
attr title "packets popped, vector(packetBytes)"
vector 145 NetworkWithShapingAndPolicing.R15.ppp[2].ppp.queue.priority packetPopped:vector(packetBytes) ETV
attr interpolationmode none
attr title "packets popped, vector(packetBytes)"
vector 146 NetworkWithShapingAndPolicing.R15.ppp[2].ppp.queue packetPopped:vector(packetBytes) ETV
attr interpolationmode none
attr source localSignal(packetPopped)
attr title "packets popped, vector(packetBytes)"
vector 147 NetworkWithShapingAndPolicing.R15.ppp[2].ppp txPk:vector(packetBytes) ETV
attr interpolationmode none
attr source packetSentToLower
attr title "packets transmitted, vector(packetBytes)"
vector 148 NetworkWithShapingAndPolicing.R10.ppp[1].ppp rcvdPkFromHl:vector(packetBytes) ETV
attr interpolationmode none
attr source packetReceivedFromUpper
attr title "packets received from higher layer, vector(packetBytes)"
vector 149 NetworkWithShapingAndPolicing.R10.ppp[1].ppp.queue packetPushed:vector(packetBytes) ETV
attr interpolationmode none
attr source localSignal(packetPushed)
attr title "packets pushed, vector(packetBytes)"
vector 150 NetworkWithShapingAndPolicing.R10.ppp[1].ppp.queue queueLength:vector ETV
attr interpolationmode sample-hold
attr source "count(localSignal(packetPushed)) - count(localSignal(packetPopped)) - count(localSignal(packetRemoved)) - count(packetDropped)"
attr title "queue length, vector"
vector 151 NetworkWithShapingAndPolicing.R10.ppp[1].ppp.queue.classifier pkClass:vector ETV
attr interpolationmode none
attr source pkClass
attr title "packet class, vector"
vector 152 NetworkWithShapingAndPolicing.R10.ppp[1].ppp.queue.beQueue packetPushed:vector(packetBytes) ETV
attr interpolationmode none
attr title "packet pushed, vector(packetBytes)"
vector 153 NetworkWithShapingAndPolicing.R10.ppp[1].ppp.queue.beQueue packetPopped:vector(packetBytes) ETV
attr interpolationmode none
attr title "packet popped, vector(packetBytes)"
vector 154 NetworkWithShapingAndPolicing.R10.ppp[1].ppp.queue.beQueue queueingTime:vector ETV
attr interpolationmode none
attr source queueingTime(packetPopped)
attr title "queueing times, vector"
attr unit s
vector 155 NetworkWithShapingAndPolicing.R10.ppp[1].ppp.queue queueingTime:vector ETV
attr interpolationmode none
attr source queueingTime(packetPopped)
attr title "queueing times, vector"
attr unit s
vector 156 NetworkWithShapingAndPolicing.R10.ppp[1].ppp.queue.wrr packetPopped:vector(packetBytes) ETV
attr interpolationmode none
attr title "packets popped, vector(packetBytes)"
vector 157 NetworkWithShapingAndPolicing.R10.ppp[1].ppp.queue.priority packetPopped:vector(packetBytes) ETV
attr interpolationmode none
attr title "packets popped, vector(packetBytes)"
vector 158 NetworkWithShapingAndPolicing.R10.ppp[1].ppp.queue packetPopped:vector(packetBytes) ETV
attr interpolationmode none
attr source localSignal(packetPopped)
attr title "packets popped, vector(packetBytes)"
vector 159 NetworkWithShapingAndPolicing.R10.ppp[1].ppp txPk:vector(packetBytes) ETV
attr interpolationmode none
attr source packetSentToLower
attr title "packets transmitted, vector(packetBytes)"
vector 160 NetworkWithShapingAndPolicing.R5.ppp[1].ppp rcvdPkFromHl:vector(packetBytes) ETV
attr interpolationmode none
attr source packetReceivedFromUpper
attr title "packets received from higher layer, vector(packetBytes)"
vector 161 NetworkWithShapingAndPolicing.R5.ppp[1].ppp.queue packetPushed:vector(packetBytes) ETV
attr interpolationmode none
attr source localSignal(packetPushed)
attr title "packets pushed, vector(packetBytes)"
vector 162 NetworkWithShapingAndPolicing.R5.ppp[1].ppp.queue queueLength:vector ETV
attr interpolationmode sample-hold
attr source "count(localSignal(packetPushed)) - count(localSignal(packetPopped)) - count(localSignal(packetRemoved)) - count(packetDropped)"
attr title "queue length, vector"
vector 163 NetworkWithShapingAndPolicing.R5.ppp[1].ppp.queue.classifier pkClass:vector ETV
attr interpolationmode none
attr source pkClass
attr title "packet class, vector"
vector 164 NetworkWithShapingAndPolicing.R5.ppp[1].ppp.queue.beQueue packetPushed:vector(packetBytes) ETV
attr interpolationmode none
attr title "packet pushed, vector(packetBytes)"
vector 165 NetworkWithShapingAndPolicing.R5.ppp[1].ppp.queue.beQueue packetPopped:vector(packetBytes) ETV
attr interpolationmode none
attr title "packet popped, vector(packetBytes)"
vector 166 NetworkWithShapingAndPolicing.R5.ppp[1].ppp.queue.beQueue queueingTime:vector ETV
attr interpolationmode none
attr source queueingTime(packetPopped)
attr title "queueing times, vector"
attr unit s
vector 167 NetworkWithShapingAndPolicing.R5.ppp[1].ppp.queue queueingTime:vector ETV
attr interpolationmode none
attr source queueingTime(packetPopped)
attr title "queueing times, vector"
attr unit s
vector 168 NetworkWithShapingAndPolicing.R5.ppp[1].ppp.queue.wrr packetPopped:vector(packetBytes) ETV
attr interpolationmode none
attr title "packets popped, vector(packetBytes)"
vector 169 NetworkWithShapingAndPolicing.R5.ppp[1].ppp.queue.priority packetPopped:vector(packetBytes) ETV
attr interpolationmode none
attr title "packets popped, vector(packetBytes)"
vector 170 NetworkWithShapingAndPolicing.R5.ppp[1].ppp.queue packetPopped:vector(packetBytes) ETV
attr interpolationmode none
attr source localSignal(packetPopped)
attr title "packets popped, vector(packetBytes)"
vector 171 NetworkWithShapingAndPolicing.R5.ppp[1].ppp txPk:vector(packetBytes) ETV
attr interpolationmode none
attr source packetSentToLower
attr title "packets transmitted, vector(packetBytes)"
vector 172 NetworkWithShapingAndPolicing.R4.ppp[0].ppp rcvdPkFromHl:vector(packetBytes) ETV
attr interpolationmode none
attr source packetReceivedFromUpper
attr title "packets received from higher layer, vector(packetBytes)"
vector 173 NetworkWithShapingAndPolicing.R4.ppp[0].ppp.queue packetPushed:vector(packetBytes) ETV
attr interpolationmode none
attr source localSignal(packetPushed)
attr title "packets pushed, vector(packetBytes)"
vector 174 NetworkWithShapingAndPolicing.R4.ppp[0].ppp.queue queueLength:vector ETV
attr interpolationmode sample-hold
attr source "count(localSignal(packetPushed)) - count(localSignal(packetPopped)) - count(localSignal(packetRemoved)) - count(packetDropped)"
attr title "queue length, vector"
vector 175 NetworkWithShapingAndPolicing.R4.ppp[0].ppp.queue.classifier pkClass:vector ETV
attr interpolationmode none
attr source pkClass
attr title "packet class, vector"
vector 176 NetworkWithShapingAndPolicing.R4.ppp[0].ppp.queue.beQueue packetPushed:vector(packetBytes) ETV
attr interpolationmode none
attr title "packet pushed, vector(packetBytes)"
vector 177 NetworkWithShapingAndPolicing.R4.ppp[0].ppp.queue.beQueue packetPopped:vector(packetBytes) ETV
attr interpolationmode none
attr title "packet popped, vector(packetBytes)"
vector 178 NetworkWithShapingAndPolicing.R4.ppp[0].ppp.queue.beQueue queueingTime:vector ETV
attr interpolationmode none
attr source queueingTime(packetPopped)
attr title "queueing times, vector"
attr unit s
vector 179 NetworkWithShapingAndPolicing.R4.ppp[0].ppp.queue queueingTime:vector ETV
attr interpolationmode none
attr source queueingTime(packetPopped)
attr title "queueing times, vector"
attr unit s
vector 180 NetworkWithShapingAndPolicing.R4.ppp[0].ppp.queue.wrr packetPopped:vector(packetBytes) ETV
attr interpolationmode none
attr title "packets popped, vector(packetBytes)"
vector 181 NetworkWithShapingAndPolicing.R4.ppp[0].ppp.queue.priority packetPopped:vector(packetBytes) ETV
attr interpolationmode none
attr title "packets popped, vector(packetBytes)"
vector 182 NetworkWithShapingAndPolicing.R4.ppp[0].ppp.queue packetPopped:vector(packetBytes) ETV
attr interpolationmode none
attr source localSignal(packetPopped)
attr title "packets popped, vector(packetBytes)"
vector 183 NetworkWithShapingAndPolicing.R4.ppp[0].ppp txPk:vector(packetBytes) ETV
attr interpolationmode none
attr source packetSentToLower
attr title "packets transmitted, vector(packetBytes)"
vector 184 NetworkWithShapingAndPolicing.R15.ppp[1].ppp rxPkOk:vector(packetBytes) ETV
attr interpolationmode none
attr source rxPkOk
attr title "packets received OK, vector(packetBytes)"
vector 185 NetworkWithShapingAndPolicing.R15.ppp[1].ppp passedUpPk:vector(packetBytes) ETV
attr interpolationmode none
attr source packetSentToUpper
attr title "packets passed to higher layer, vector(packetBytes)"
vector 186 NetworkWithShapingAndPolicing.R13.ppp[1].ppp rcvdPkFromHl:vector(packetBytes) ETV
attr interpolationmode none
attr source packetReceivedFromUpper
attr title "packets received from higher layer, vector(packetBytes)"
vector 187 NetworkWithShapingAndPolicing.R13.ppp[1].ppp.queue packetPushed:vector(packetBytes) ETV
attr interpolationmode none
attr source localSignal(packetPushed)
attr title "packets pushed, vector(packetBytes)"
vector 188 NetworkWithShapingAndPolicing.R13.ppp[1].ppp.queue queueLength:vector ETV
attr interpolationmode sample-hold
attr source "count(localSignal(packetPushed)) - count(localSignal(packetPopped)) - count(localSignal(packetRemoved)) - count(packetDropped)"
attr title "queue length, vector"
vector 189 NetworkWithShapingAndPolicing.R13.ppp[1].ppp.queue.classifier pkClass:vector ETV
attr interpolationmode none
attr source pkClass
attr title "packet class, vector"
vector 190 NetworkWithShapingAndPolicing.R13.ppp[1].ppp.queue.beQueue packetPushed:vector(packetBytes) ETV
attr interpolationmode none
attr title "packet pushed, vector(packetBytes)"
vector 191 NetworkWithShapingAndPolicing.R13.ppp[1].ppp.queue.beQueue packetPopped:vector(packetBytes) ETV
attr interpolationmode none
attr title "packet popped, vector(packetBytes)"
vector 192 NetworkWithShapingAndPolicing.R13.ppp[1].ppp.queue.beQueue queueingTime:vector ETV
attr interpolationmode none
attr source queueingTime(packetPopped)
attr title "queueing times, vector"
attr unit s
vector 193 NetworkWithShapingAndPolicing.R13.ppp[1].ppp.queue queueingTime:vector ETV
attr interpolationmode none
attr source queueingTime(packetPopped)
attr title "queueing times, vector"
attr unit s
vector 194 NetworkWithShapingAndPolicing.R13.ppp[1].ppp.queue.wrr packetPopped:vector(packetBytes) ETV
attr interpolationmode none
attr title "packets popped, vector(packetBytes)"
vector 195 NetworkWithShapingAndPolicing.R13.ppp[1].ppp.queue.priority packetPopped:vector(packetBytes) ETV
attr interpolationmode none
attr title "packets popped, vector(packetBytes)"
vector 196 NetworkWithShapingAndPolicing.R13.ppp[1].ppp.queue packetPopped:vector(packetBytes) ETV
attr interpolationmode none
attr source localSignal(packetPopped)
attr title "packets popped, vector(packetBytes)"
vector 197 NetworkWithShapingAndPolicing.R13.ppp[1].ppp txPk:vector(packetBytes) ETV
attr interpolationmode none
attr source packetSentToLower
attr title "packets transmitted, vector(packetBytes)"
vector 198 NetworkWithShapingAndPolicing.R2.ppp[0].ppp rcvdPkFromHl:vector(packetBytes) ETV
attr interpolationmode none
attr source packetReceivedFromUpper
attr title "packets received from higher layer, vector(packetBytes)"
vector 199 NetworkWithShapingAndPolicing.R2.ppp[0].ppp.queue packetPushed:vector(packetBytes) ETV
attr interpolationmode none
attr source localSignal(packetPushed)
attr title "packets pushed, vector(packetBytes)"
vector 200 NetworkWithShapingAndPolicing.R2.ppp[0].ppp.queue queueLength:vector ETV
attr interpolationmode sample-hold
attr source "count(localSignal(packetPushed)) - count(localSignal(packetPopped)) - count(localSignal(packetRemoved)) - count(packetDropped)"
attr title "queue length, vector"
vector 201 NetworkWithShapingAndPolicing.R2.ppp[0].ppp.queue.classifier pkClass:vector ETV
attr interpolationmode none
attr source pkClass
attr title "packet class, vector"
vector 202 NetworkWithShapingAndPolicing.R2.ppp[0].ppp.queue.beQueue packetPushed:vector(packetBytes) ETV
attr interpolationmode none
attr title "packet pushed, vector(packetBytes)"
vector 203 NetworkWithShapingAndPolicing.R2.ppp[0].ppp.queue.beQueue packetPopped:vector(packetBytes) ETV
attr interpolationmode none
attr title "packet popped, vector(packetBytes)"
vector 204 NetworkWithShapingAndPolicing.R2.ppp[0].ppp.queue.beQueue queueingTime:vector ETV
attr interpolationmode none
attr source queueingTime(packetPopped)
attr title "queueing times, vector"
attr unit s
vector 205 NetworkWithShapingAndPolicing.R2.ppp[0].ppp.queue queueingTime:vector ETV
attr interpolationmode none
attr source queueingTime(packetPopped)
attr title "queueing times, vector"
attr unit s
vector 206 NetworkWithShapingAndPolicing.R2.ppp[0].ppp.queue.wrr packetPopped:vector(packetBytes) ETV
attr interpolationmode none
attr title "packets popped, vector(packetBytes)"
vector 207 NetworkWithShapingAndPolicing.R2.ppp[0].ppp.queue.priority packetPopped:vector(packetBytes) ETV
attr interpolationmode none
attr title "packets popped, vector(packetBytes)"
vector 208 NetworkWithShapingAndPolicing.R2.ppp[0].ppp.queue packetPopped:vector(packetBytes) ETV
attr interpolationmode none
attr source localSignal(packetPopped)
attr title "packets popped, vector(packetBytes)"
vector 209 NetworkWithShapingAndPolicing.R2.ppp[0].ppp txPk:vector(packetBytes) ETV
attr interpolationmode none
attr source packetSentToLower
attr title "packets transmitted, vector(packetBytes)"
vector 210 NetworkWithShapingAndPolicing.R9.ppp[2].ppp rcvdPkFromHl:vector(packetBytes) ETV
attr interpolationmode none
attr source packetReceivedFromUpper
attr title "packets received from higher layer, vector(packetBytes)"
vector 211 NetworkWithShapingAndPolicing.R9.ppp[2].ppp.queue packetPushed:vector(packetBytes) ETV
attr interpolationmode none
attr source localSignal(packetPushed)
attr title "packets pushed, vector(packetBytes)"
vector 212 NetworkWithShapingAndPolicing.R9.ppp[2].ppp.queue queueLength:vector ETV
attr interpolationmode sample-hold
attr source "count(localSignal(packetPushed)) - count(localSignal(packetPopped)) - count(localSignal(packetRemoved)) - count(packetDropped)"
attr title "queue length, vector"
vector 213 NetworkWithShapingAndPolicing.R9.ppp[2].ppp.queue.classifier pkClass:vector ETV
attr interpolationmode none
attr source pkClass
attr title "packet class, vector"
vector 214 NetworkWithShapingAndPolicing.R9.ppp[2].ppp.queue.beQueue packetPushed:vector(packetBytes) ETV
attr interpolationmode none
attr title "packet pushed, vector(packetBytes)"
vector 215 NetworkWithShapingAndPolicing.R9.ppp[2].ppp.queue.beQueue packetPopped:vector(packetBytes) ETV
attr interpolationmode none
attr title "packet popped, vector(packetBytes)"
vector 216 NetworkWithShapingAndPolicing.R9.ppp[2].ppp.queue.beQueue queueingTime:vector ETV
attr interpolationmode none
attr source queueingTime(packetPopped)
attr title "queueing times, vector"
attr unit s
vector 217 NetworkWithShapingAndPolicing.R9.ppp[2].ppp.queue queueingTime:vector ETV
attr interpolationmode none
attr source queueingTime(packetPopped)
attr title "queueing times, vector"
attr unit s
vector 218 NetworkWithShapingAndPolicing.R9.ppp[2].ppp.queue.wrr packetPopped:vector(packetBytes) ETV
attr interpolationmode none
attr title "packets popped, vector(packetBytes)"
vector 219 NetworkWithShapingAndPolicing.R9.ppp[2].ppp.queue.priority packetPopped:vector(packetBytes) ETV
attr interpolationmode none
attr title "packets popped, vector(packetBytes)"
vector 220 NetworkWithShapingAndPolicing.R9.ppp[2].ppp.queue packetPopped:vector(packetBytes) ETV
attr interpolationmode none
attr source localSignal(packetPopped)
attr title "packets popped, vector(packetBytes)"
vector 221 NetworkWithShapingAndPolicing.R9.ppp[2].ppp txPk:vector(packetBytes) ETV
attr interpolationmode none
attr source packetSentToLower
attr title "packets transmitted, vector(packetBytes)"
vector 222 NetworkWithShapingAndPolicing.R3.ppp[1].ppp rcvdPkFromHl:vector(packetBytes) ETV
attr interpolationmode none
attr source packetReceivedFromUpper
attr title "packets received from higher layer, vector(packetBytes)"
vector 223 NetworkWithShapingAndPolicing.R3.ppp[1].ppp.queue packetPushed:vector(packetBytes) ETV
attr interpolationmode none
attr source localSignal(packetPushed)
attr title "packets pushed, vector(packetBytes)"
vector 224 NetworkWithShapingAndPolicing.R3.ppp[1].ppp.queue queueLength:vector ETV
attr interpolationmode sample-hold
attr source "count(localSignal(packetPushed)) - count(localSignal(packetPopped)) - count(localSignal(packetRemoved)) - count(packetDropped)"
attr title "queue length, vector"
vector 225 NetworkWithShapingAndPolicing.R3.ppp[1].ppp.queue.classifier pkClass:vector ETV
attr interpolationmode none
attr source pkClass
attr title "packet class, vector"
vector 226 NetworkWithShapingAndPolicing.R3.ppp[1].ppp.queue.beQueue packetPushed:vector(packetBytes) ETV
attr interpolationmode none
attr title "packet pushed, vector(packetBytes)"
vector 227 NetworkWithShapingAndPolicing.R3.ppp[1].ppp.queue.beQueue packetPopped:vector(packetBytes) ETV
attr interpolationmode none
attr title "packet popped, vector(packetBytes)"
vector 228 NetworkWithShapingAndPolicing.R3.ppp[1].ppp.queue.beQueue queueingTime:vector ETV
attr interpolationmode none
attr source queueingTime(packetPopped)
attr title "queueing times, vector"
attr unit s
vector 229 NetworkWithShapingAndPolicing.R3.ppp[1].ppp.queue queueingTime:vector ETV
attr interpolationmode none
attr source queueingTime(packetPopped)
attr title "queueing times, vector"
attr unit s
vector 230 NetworkWithShapingAndPolicing.R3.ppp[1].ppp.queue.wrr packetPopped:vector(packetBytes) ETV
attr interpolationmode none
attr title "packets popped, vector(packetBytes)"
vector 231 NetworkWithShapingAndPolicing.R3.ppp[1].ppp.queue.priority packetPopped:vector(packetBytes) ETV
attr interpolationmode none
attr title "packets popped, vector(packetBytes)"
vector 232 NetworkWithShapingAndPolicing.R3.ppp[1].ppp.queue packetPopped:vector(packetBytes) ETV
attr interpolationmode none
attr source localSignal(packetPopped)
attr title "packets popped, vector(packetBytes)"
vector 233 NetworkWithShapingAndPolicing.R3.ppp[1].ppp txPk:vector(packetBytes) ETV
attr interpolationmode none
attr source packetSentToLower
attr title "packets transmitted, vector(packetBytes)"
vector 234 NetworkWithShapingAndPolicing.R2.ppp[2].ppp rcvdPkFromHl:vector(packetBytes) ETV
attr interpolationmode none
attr source packetReceivedFromUpper
attr title "packets received from higher layer, vector(packetBytes)"
vector 235 NetworkWithShapingAndPolicing.R2.ppp[2].ppp.queue packetPushed:vector(packetBytes) ETV
attr interpolationmode none
attr source localSignal(packetPushed)
attr title "packets pushed, vector(packetBytes)"
vector 236 NetworkWithShapingAndPolicing.R2.ppp[2].ppp.queue queueLength:vector ETV
attr interpolationmode sample-hold
attr source "count(localSignal(packetPushed)) - count(localSignal(packetPopped)) - count(localSignal(packetRemoved)) - count(packetDropped)"
attr title "queue length, vector"
vector 237 NetworkWithShapingAndPolicing.R2.ppp[2].ppp.queue.classifier pkClass:vector ETV
attr interpolationmode none
attr source pkClass
attr title "packet class, vector"
vector 238 NetworkWithShapingAndPolicing.R2.ppp[2].ppp.queue.beQueue packetPushed:vector(packetBytes) ETV
attr interpolationmode none
attr title "packet pushed, vector(packetBytes)"
vector 239 NetworkWithShapingAndPolicing.R2.ppp[2].ppp.queue.beQueue packetPopped:vector(packetBytes) ETV
attr interpolationmode none
attr title "packet popped, vector(packetBytes)"
vector 240 NetworkWithShapingAndPolicing.R2.ppp[2].ppp.queue.beQueue queueingTime:vector ETV
attr interpolationmode none
attr source queueingTime(packetPopped)
attr title "queueing times, vector"
attr unit s
vector 241 NetworkWithShapingAndPolicing.R2.ppp[2].ppp.queue queueingTime:vector ETV
attr interpolationmode none
attr source queueingTime(packetPopped)
attr title "queueing times, vector"
attr unit s
vector 242 NetworkWithShapingAndPolicing.R2.ppp[2].ppp.queue.wrr packetPopped:vector(packetBytes) ETV
attr interpolationmode none
attr title "packets popped, vector(packetBytes)"
vector 243 NetworkWithShapingAndPolicing.R2.ppp[2].ppp.queue.priority packetPopped:vector(packetBytes) ETV
attr interpolationmode none
attr title "packets popped, vector(packetBytes)"
vector 244 NetworkWithShapingAndPolicing.R2.ppp[2].ppp.queue packetPopped:vector(packetBytes) ETV
attr interpolationmode none
attr source localSignal(packetPopped)
attr title "packets popped, vector(packetBytes)"
vector 245 NetworkWithShapingAndPolicing.R2.ppp[2].ppp txPk:vector(packetBytes) ETV
attr interpolationmode none
attr source packetSentToLower
attr title "packets transmitted, vector(packetBytes)"
vector 246 NetworkWithShapingAndPolicing.R7.ppp[0].ppp rcvdPkFromHl:vector(packetBytes) ETV
attr interpolationmode none
attr source packetReceivedFromUpper
attr title "packets received from higher layer, vector(packetBytes)"
vector 247 NetworkWithShapingAndPolicing.R7.ppp[0].ppp.queue packetPushed:vector(packetBytes) ETV
attr interpolationmode none
attr source localSignal(packetPushed)
attr title "packets pushed, vector(packetBytes)"
vector 248 NetworkWithShapingAndPolicing.R7.ppp[0].ppp.queue queueLength:vector ETV
attr interpolationmode sample-hold
attr source "count(localSignal(packetPushed)) - count(localSignal(packetPopped)) - count(localSignal(packetRemoved)) - count(packetDropped)"
attr title "queue length, vector"
vector 249 NetworkWithShapingAndPolicing.R7.ppp[0].ppp.queue.classifier pkClass:vector ETV
attr interpolationmode none
attr source pkClass
attr title "packet class, vector"
vector 250 NetworkWithShapingAndPolicing.R7.ppp[0].ppp.queue.beQueue packetPushed:vector(packetBytes) ETV
attr interpolationmode none
attr title "packet pushed, vector(packetBytes)"
vector 251 NetworkWithShapingAndPolicing.R7.ppp[0].ppp.queue.beQueue packetPopped:vector(packetBytes) ETV
attr interpolationmode none
attr title "packet popped, vector(packetBytes)"
vector 252 NetworkWithShapingAndPolicing.R7.ppp[0].ppp.queue.beQueue queueingTime:vector ETV
attr interpolationmode none
attr source queueingTime(packetPopped)
attr title "queueing times, vector"
attr unit s
vector 253 NetworkWithShapingAndPolicing.R7.ppp[0].ppp.queue queueingTime:vector ETV
attr interpolationmode none
attr source queueingTime(packetPopped)
attr title "queueing times, vector"
attr unit s
vector 254 NetworkWithShapingAndPolicing.R7.ppp[0].ppp.queue.wrr packetPopped:vector(packetBytes) ETV
attr interpolationmode none
attr title "packets popped, vector(packetBytes)"
vector 255 NetworkWithShapingAndPolicing.R7.ppp[0].ppp.queue.priority packetPopped:vector(packetBytes) ETV
attr interpolationmode none
attr title "packets popped, vector(packetBytes)"
vector 256 NetworkWithShapingAndPolicing.R7.ppp[0].ppp.queue packetPopped:vector(packetBytes) ETV
attr interpolationmode none
attr source localSignal(packetPopped)
attr title "packets popped, vector(packetBytes)"
vector 257 NetworkWithShapingAndPolicing.R7.ppp[0].ppp txPk:vector(packetBytes) ETV
attr interpolationmode none
attr source packetSentToLower
attr title "packets transmitted, vector(packetBytes)"
vector 258 NetworkWithShapingAndPolicing.R6.ppp[1].ppp rcvdPkFromHl:vector(packetBytes) ETV
attr interpolationmode none
attr source packetReceivedFromUpper
attr title "packets received from higher layer, vector(packetBytes)"
vector 259 NetworkWithShapingAndPolicing.R6.ppp[1].ppp.queue packetPushed:vector(packetBytes) ETV
attr interpolationmode none
attr source localSignal(packetPushed)
attr title "packets pushed, vector(packetBytes)"
vector 260 NetworkWithShapingAndPolicing.R6.ppp[1].ppp.queue queueLength:vector ETV
attr interpolationmode sample-hold
attr source "count(localSignal(packetPushed)) - count(localSignal(packetPopped)) - count(localSignal(packetRemoved)) - count(packetDropped)"
attr title "queue length, vector"
vector 261 NetworkWithShapingAndPolicing.R6.ppp[1].ppp.queue.classifier pkClass:vector ETV
attr interpolationmode none
attr source pkClass
attr title "packet class, vector"
vector 262 NetworkWithShapingAndPolicing.R6.ppp[1].ppp.queue.beQueue packetPushed:vector(packetBytes) ETV
attr interpolationmode none
attr title "packet pushed, vector(packetBytes)"
vector 263 NetworkWithShapingAndPolicing.R6.ppp[1].ppp.queue.beQueue packetPopped:vector(packetBytes) ETV
attr interpolationmode none
attr title "packet popped, vector(packetBytes)"
vector 264 NetworkWithShapingAndPolicing.R6.ppp[1].ppp.queue.beQueue queueingTime:vector ETV
attr interpolationmode none
attr source queueingTime(packetPopped)
attr title "queueing times, vector"
attr unit s
vector 265 NetworkWithShapingAndPolicing.R6.ppp[1].ppp.queue queueingTime:vector ETV
attr interpolationmode none
attr source queueingTime(packetPopped)
attr title "queueing times, vector"
attr unit s
vector 266 NetworkWithShapingAndPolicing.R6.ppp[1].ppp.queue.wrr packetPopped:vector(packetBytes) ETV
attr interpolationmode none
attr title "packets popped, vector(packetBytes)"
vector 267 NetworkWithShapingAndPolicing.R6.ppp[1].ppp.queue.priority packetPopped:vector(packetBytes) ETV
attr interpolationmode none
attr title "packets popped, vector(packetBytes)"
vector 268 NetworkWithShapingAndPolicing.R6.ppp[1].ppp.queue packetPopped:vector(packetBytes) ETV
attr interpolationmode none
attr source localSignal(packetPopped)
attr title "packets popped, vector(packetBytes)"
vector 269 NetworkWithShapingAndPolicing.R6.ppp[1].ppp txPk:vector(packetBytes) ETV
attr interpolationmode none
attr source packetSentToLower
attr title "packets transmitted, vector(packetBytes)"
vector 270 NetworkWithShapingAndPolicing.R14.ppp[1].ppp rcvdPkFromHl:vector(packetBytes) ETV
attr interpolationmode none
attr source packetReceivedFromUpper
attr title "packets received from higher layer, vector(packetBytes)"
vector 271 NetworkWithShapingAndPolicing.R14.ppp[1].ppp.queue packetPushed:vector(packetBytes) ETV
attr interpolationmode none
attr source localSignal(packetPushed)
attr title "packets pushed, vector(packetBytes)"
vector 272 NetworkWithShapingAndPolicing.R14.ppp[1].ppp.queue queueLength:vector ETV
attr interpolationmode sample-hold
attr source "count(localSignal(packetPushed)) - count(localSignal(packetPopped)) - count(localSignal(packetRemoved)) - count(packetDropped)"
attr title "queue length, vector"
vector 273 NetworkWithShapingAndPolicing.R14.ppp[1].ppp.queue.classifier pkClass:vector ETV
attr interpolationmode none
attr source pkClass
attr title "packet class, vector"
vector 274 NetworkWithShapingAndPolicing.R14.ppp[1].ppp.queue.beQueue packetPushed:vector(packetBytes) ETV
attr interpolationmode none
attr title "packet pushed, vector(packetBytes)"
vector 275 NetworkWithShapingAndPolicing.R14.ppp[1].ppp.queue.beQueue packetPopped:vector(packetBytes) ETV
attr interpolationmode none
attr title "packet popped, vector(packetBytes)"
vector 276 NetworkWithShapingAndPolicing.R14.ppp[1].ppp.queue.beQueue queueingTime:vector ETV
attr interpolationmode none
attr source queueingTime(packetPopped)
attr title "queueing times, vector"
attr unit s
vector 277 NetworkWithShapingAndPolicing.R14.ppp[1].ppp.queue queueingTime:vector ETV
attr interpolationmode none
attr source queueingTime(packetPopped)
attr title "queueing times, vector"
attr unit s
vector 278 NetworkWithShapingAndPolicing.R14.ppp[1].ppp.queue.wrr packetPopped:vector(packetBytes) ETV
attr interpolationmode none
attr title "packets popped, vector(packetBytes)"
vector 279 NetworkWithShapingAndPolicing.R14.ppp[1].ppp.queue.priority packetPopped:vector(packetBytes) ETV
attr interpolationmode none
attr title "packets popped, vector(packetBytes)"
vector 280 NetworkWithShapingAndPolicing.R14.ppp[1].ppp.queue packetPopped:vector(packetBytes) ETV
attr interpolationmode none
attr source localSignal(packetPopped)
attr title "packets popped, vector(packetBytes)"
vector 281 NetworkWithShapingAndPolicing.R14.ppp[1].ppp txPk:vector(packetBytes) ETV
attr interpolationmode none
attr source packetSentToLower
attr title "packets transmitted, vector(packetBytes)"
vector 282 NetworkWithShapingAndPolicing.R7.ppp[1].ppp rcvdPkFromHl:vector(packetBytes) ETV
attr interpolationmode none
attr source packetReceivedFromUpper
attr title "packets received from higher layer, vector(packetBytes)"
vector 283 NetworkWithShapingAndPolicing.R7.ppp[1].ppp.queue packetPushed:vector(packetBytes) ETV
attr interpolationmode none
attr source localSignal(packetPushed)
attr title "packets pushed, vector(packetBytes)"
vector 284 NetworkWithShapingAndPolicing.R7.ppp[1].ppp.queue queueLength:vector ETV
attr interpolationmode sample-hold
attr source "count(localSignal(packetPushed)) - count(localSignal(packetPopped)) - count(localSignal(packetRemoved)) - count(packetDropped)"
attr title "queue length, vector"
vector 285 NetworkWithShapingAndPolicing.R7.ppp[1].ppp.queue.classifier pkClass:vector ETV
attr interpolationmode none
attr source pkClass
attr title "packet class, vector"
vector 286 NetworkWithShapingAndPolicing.R7.ppp[1].ppp.queue.beQueue packetPushed:vector(packetBytes) ETV
attr interpolationmode none
attr title "packet pushed, vector(packetBytes)"
vector 287 NetworkWithShapingAndPolicing.R7.ppp[1].ppp.queue.beQueue packetPopped:vector(packetBytes) ETV
attr interpolationmode none
attr title "packet popped, vector(packetBytes)"
vector 288 NetworkWithShapingAndPolicing.R7.ppp[1].ppp.queue.beQueue queueingTime:vector ETV
attr interpolationmode none
attr source queueingTime(packetPopped)
attr title "queueing times, vector"
attr unit s
vector 289 NetworkWithShapingAndPolicing.R7.ppp[1].ppp.queue queueingTime:vector ETV
attr interpolationmode none
attr source queueingTime(packetPopped)
attr title "queueing times, vector"
attr unit s
vector 290 NetworkWithShapingAndPolicing.R7.ppp[1].ppp.queue.wrr packetPopped:vector(packetBytes) ETV
attr interpolationmode none
attr title "packets popped, vector(packetBytes)"
vector 291 NetworkWithShapingAndPolicing.R7.ppp[1].ppp.queue.priority packetPopped:vector(packetBytes) ETV
attr interpolationmode none
attr title "packets popped, vector(packetBytes)"
vector 292 NetworkWithShapingAndPolicing.R7.ppp[1].ppp.queue packetPopped:vector(packetBytes) ETV
attr interpolationmode none
attr source localSignal(packetPopped)
attr title "packets popped, vector(packetBytes)"
vector 293 NetworkWithShapingAndPolicing.R7.ppp[1].ppp txPk:vector(packetBytes) ETV
attr interpolationmode none
attr source packetSentToLower
attr title "packets transmitted, vector(packetBytes)"
vector 294 NetworkWithShapingAndPolicing.R9.ppp[0].ppp rcvdPkFromHl:vector(packetBytes) ETV
attr interpolationmode none
attr source packetReceivedFromUpper
attr title "packets received from higher layer, vector(packetBytes)"
vector 295 NetworkWithShapingAndPolicing.R9.ppp[0].ppp.queue packetPushed:vector(packetBytes) ETV
attr interpolationmode none
attr source localSignal(packetPushed)
attr title "packets pushed, vector(packetBytes)"
vector 296 NetworkWithShapingAndPolicing.R9.ppp[0].ppp.queue queueLength:vector ETV
attr interpolationmode sample-hold
attr source "count(localSignal(packetPushed)) - count(localSignal(packetPopped)) - count(localSignal(packetRemoved)) - count(packetDropped)"
attr title "queue length, vector"
vector 297 NetworkWithShapingAndPolicing.R9.ppp[0].ppp.queue.classifier pkClass:vector ETV
attr interpolationmode none
attr source pkClass
attr title "packet class, vector"
vector 298 NetworkWithShapingAndPolicing.R9.ppp[0].ppp.queue.beQueue packetPushed:vector(packetBytes) ETV
attr interpolationmode none
attr title "packet pushed, vector(packetBytes)"
vector 299 NetworkWithShapingAndPolicing.R9.ppp[0].ppp.queue.beQueue packetPopped:vector(packetBytes) ETV
attr interpolationmode none
attr title "packet popped, vector(packetBytes)"
vector 300 NetworkWithShapingAndPolicing.R9.ppp[0].ppp.queue.beQueue queueingTime:vector ETV
attr interpolationmode none
attr source queueingTime(packetPopped)
attr title "queueing times, vector"
attr unit s
vector 301 NetworkWithShapingAndPolicing.R9.ppp[0].ppp.queue queueingTime:vector ETV
attr interpolationmode none
attr source queueingTime(packetPopped)
attr title "queueing times, vector"
attr unit s
vector 302 NetworkWithShapingAndPolicing.R9.ppp[0].ppp.queue.wrr packetPopped:vector(packetBytes) ETV
attr interpolationmode none
attr title "packets popped, vector(packetBytes)"
vector 303 NetworkWithShapingAndPolicing.R9.ppp[0].ppp.queue.priority packetPopped:vector(packetBytes) ETV
attr interpolationmode none
attr title "packets popped, vector(packetBytes)"
vector 304 NetworkWithShapingAndPolicing.R9.ppp[0].ppp.queue packetPopped:vector(packetBytes) ETV
attr interpolationmode none
attr source localSignal(packetPopped)
attr title "packets popped, vector(packetBytes)"
vector 305 NetworkWithShapingAndPolicing.R9.ppp[0].ppp txPk:vector(packetBytes) ETV
attr interpolationmode none
attr source packetSentToLower
attr title "packets transmitted, vector(packetBytes)"
vector 306 NetworkWithShapingAndPolicing.R8.ppp[2].egressTC.mfClassifier pkClass:vector ETV
attr interpolationmode none
attr source pkClass
attr title "packet class, vector"
vector 307 NetworkWithShapingAndPolicing.R8.ppp[2].egressTC.beMarker packetMarked:vector(packetBytes) ETV
attr interpolationmode none
attr source packetMarked
attr title "packets marked, vector(packetBytes)"
vector 308 NetworkWithShapingAndPolicing.R8.ppp[2].ppp rcvdPkFromHl:vector(packetBytes) ETV
attr interpolationmode none
attr source packetReceivedFromUpper
attr title "packets received from higher layer, vector(packetBytes)"
vector 309 NetworkWithShapingAndPolicing.R8.ppp[2].ppp.queue packetPushed:vector(packetBytes) ETV
attr interpolationmode none
attr source localSignal(packetPushed)
attr title "packets pushed, vector(packetBytes)"
vector 310 NetworkWithShapingAndPolicing.R8.ppp[2].ppp.queue queueLength:vector ETV
attr interpolationmode sample-hold
attr source "count(localSignal(packetPushed)) - count(localSignal(packetPopped)) - count(localSignal(packetRemoved)) - count(packetDropped)"
attr title "queue length, vector"
vector 311 NetworkWithShapingAndPolicing.R8.ppp[2].ppp.queue.classifier pkClass:vector ETV
attr interpolationmode none
attr source pkClass
attr title "packet class, vector"
vector 312 NetworkWithShapingAndPolicing.R8.ppp[2].ppp.queue.beQueue packetPushed:vector(packetBytes) ETV
attr interpolationmode none
attr title "packet pushed, vector(packetBytes)"
vector 313 NetworkWithShapingAndPolicing.R8.ppp[2].ppp.queue.beQueue packetPopped:vector(packetBytes) ETV
attr interpolationmode none
attr title "packet popped, vector(packetBytes)"
vector 314 NetworkWithShapingAndPolicing.R8.ppp[2].ppp.queue.beQueue queueingTime:vector ETV
attr interpolationmode none
attr source queueingTime(packetPopped)
attr title "queueing times, vector"
attr unit s
vector 315 NetworkWithShapingAndPolicing.R8.ppp[2].ppp.queue queueingTime:vector ETV
attr interpolationmode none
attr source queueingTime(packetPopped)
attr title "queueing times, vector"
attr unit s
vector 316 NetworkWithShapingAndPolicing.R8.ppp[2].ppp.queue.wrr packetPopped:vector(packetBytes) ETV
attr interpolationmode none
attr title "packets popped, vector(packetBytes)"
vector 317 NetworkWithShapingAndPolicing.R8.ppp[2].ppp.queue.priority packetPopped:vector(packetBytes) ETV
attr interpolationmode none
attr title "packets popped, vector(packetBytes)"
vector 318 NetworkWithShapingAndPolicing.R8.ppp[2].ppp.queue packetPopped:vector(packetBytes) ETV
attr interpolationmode none
attr source localSignal(packetPopped)
attr title "packets popped, vector(packetBytes)"
vector 319 NetworkWithShapingAndPolicing.R8.ppp[2].ppp txPk:vector(packetBytes) ETV
attr interpolationmode none
attr source packetSentToLower
attr title "packets transmitted, vector(packetBytes)"
vector 320 NetworkWithShapingAndPolicing.R9.ppp[3].ppp rcvdPkFromHl:vector(packetBytes) ETV
attr interpolationmode none
attr source packetReceivedFromUpper
attr title "packets received from higher layer, vector(packetBytes)"
vector 321 NetworkWithShapingAndPolicing.R9.ppp[3].ppp.queue packetPushed:vector(packetBytes) ETV
attr interpolationmode none
attr source localSignal(packetPushed)
attr title "packets pushed, vector(packetBytes)"
vector 322 NetworkWithShapingAndPolicing.R9.ppp[3].ppp.queue queueLength:vector ETV
attr interpolationmode sample-hold
attr source "count(localSignal(packetPushed)) - count(localSignal(packetPopped)) - count(localSignal(packetRemoved)) - count(packetDropped)"
attr title "queue length, vector"
vector 323 NetworkWithShapingAndPolicing.R9.ppp[3].ppp.queue.classifier pkClass:vector ETV
attr interpolationmode none
attr source pkClass
attr title "packet class, vector"
vector 324 NetworkWithShapingAndPolicing.R9.ppp[3].ppp.queue.beQueue packetPushed:vector(packetBytes) ETV
attr interpolationmode none
attr title "packet pushed, vector(packetBytes)"
vector 325 NetworkWithShapingAndPolicing.R9.ppp[3].ppp.queue.beQueue packetPopped:vector(packetBytes) ETV
attr interpolationmode none
attr title "packet popped, vector(packetBytes)"
vector 326 NetworkWithShapingAndPolicing.R9.ppp[3].ppp.queue.beQueue queueingTime:vector ETV
attr interpolationmode none
attr source queueingTime(packetPopped)
attr title "queueing times, vector"
attr unit s
vector 327 NetworkWithShapingAndPolicing.R9.ppp[3].ppp.queue queueingTime:vector ETV
attr interpolationmode none
attr source queueingTime(packetPopped)
attr title "queueing times, vector"
attr unit s
vector 328 NetworkWithShapingAndPolicing.R9.ppp[3].ppp.queue.wrr packetPopped:vector(packetBytes) ETV
attr interpolationmode none
attr title "packets popped, vector(packetBytes)"
vector 329 NetworkWithShapingAndPolicing.R9.ppp[3].ppp.queue.priority packetPopped:vector(packetBytes) ETV
attr interpolationmode none
attr title "packets popped, vector(packetBytes)"
vector 330 NetworkWithShapingAndPolicing.R9.ppp[3].ppp.queue packetPopped:vector(packetBytes) ETV
attr interpolationmode none
attr source localSignal(packetPopped)
attr title "packets popped, vector(packetBytes)"
vector 331 NetworkWithShapingAndPolicing.R9.ppp[3].ppp txPk:vector(packetBytes) ETV
attr interpolationmode none
attr source packetSentToLower
attr title "packets transmitted, vector(packetBytes)"
vector 332 NetworkWithShapingAndPolicing.R8.ppp[0].ppp rcvdPkFromHl:vector(packetBytes) ETV
attr interpolationmode none
attr source packetReceivedFromUpper
attr title "packets received from higher layer, vector(packetBytes)"
vector 333 NetworkWithShapingAndPolicing.R8.ppp[0].ppp.queue packetPushed:vector(packetBytes) ETV
attr interpolationmode none
attr source localSignal(packetPushed)
attr title "packets pushed, vector(packetBytes)"
vector 334 NetworkWithShapingAndPolicing.R8.ppp[0].ppp.queue queueLength:vector ETV
attr interpolationmode sample-hold
attr source "count(localSignal(packetPushed)) - count(localSignal(packetPopped)) - count(localSignal(packetRemoved)) - count(packetDropped)"
attr title "queue length, vector"
vector 335 NetworkWithShapingAndPolicing.R8.ppp[0].ppp.queue.classifier pkClass:vector ETV
attr interpolationmode none
attr source pkClass
attr title "packet class, vector"
vector 336 NetworkWithShapingAndPolicing.R8.ppp[0].ppp.queue.beQueue packetPushed:vector(packetBytes) ETV
attr interpolationmode none
attr title "packet pushed, vector(packetBytes)"
vector 337 NetworkWithShapingAndPolicing.R8.ppp[0].ppp.queue.beQueue packetPopped:vector(packetBytes) ETV
attr interpolationmode none
attr title "packet popped, vector(packetBytes)"
vector 338 NetworkWithShapingAndPolicing.R8.ppp[0].ppp.queue.beQueue queueingTime:vector ETV
attr interpolationmode none
attr source queueingTime(packetPopped)
attr title "queueing times, vector"
attr unit s
vector 339 NetworkWithShapingAndPolicing.R8.ppp[0].ppp.queue queueingTime:vector ETV
attr interpolationmode none
attr source queueingTime(packetPopped)
attr title "queueing times, vector"
attr unit s
vector 340 NetworkWithShapingAndPolicing.R8.ppp[0].ppp.queue.wrr packetPopped:vector(packetBytes) ETV
attr interpolationmode none
attr title "packets popped, vector(packetBytes)"
vector 341 NetworkWithShapingAndPolicing.R8.ppp[0].ppp.queue.priority packetPopped:vector(packetBytes) ETV
attr interpolationmode none
attr title "packets popped, vector(packetBytes)"
vector 342 NetworkWithShapingAndPolicing.R8.ppp[0].ppp.queue packetPopped:vector(packetBytes) ETV
attr interpolationmode none
attr source localSignal(packetPopped)
attr title "packets popped, vector(packetBytes)"
vector 343 NetworkWithShapingAndPolicing.R8.ppp[0].ppp txPk:vector(packetBytes) ETV
attr interpolationmode none
attr source packetSentToLower
attr title "packets transmitted, vector(packetBytes)"
vector 344 NetworkWithShapingAndPolicing.R15.ppp[1].ppp rcvdPkFromHl:vector(packetBytes) ETV
attr interpolationmode none
attr source packetReceivedFromUpper
attr title "packets received from higher layer, vector(packetBytes)"
vector 345 NetworkWithShapingAndPolicing.R15.ppp[1].ppp.queue packetPushed:vector(packetBytes) ETV
attr interpolationmode none
attr source localSignal(packetPushed)
attr title "packets pushed, vector(packetBytes)"
vector 346 NetworkWithShapingAndPolicing.R15.ppp[1].ppp.queue queueLength:vector ETV
attr interpolationmode sample-hold
attr source "count(localSignal(packetPushed)) - count(localSignal(packetPopped)) - count(localSignal(packetRemoved)) - count(packetDropped)"
attr title "queue length, vector"
vector 347 NetworkWithShapingAndPolicing.R15.ppp[1].ppp.queue.classifier pkClass:vector ETV
attr interpolationmode none
attr source pkClass
attr title "packet class, vector"
vector 348 NetworkWithShapingAndPolicing.R15.ppp[1].ppp.queue.beQueue packetPushed:vector(packetBytes) ETV
attr interpolationmode none
attr title "packet pushed, vector(packetBytes)"
vector 349 NetworkWithShapingAndPolicing.R15.ppp[1].ppp.queue.beQueue packetPopped:vector(packetBytes) ETV
attr interpolationmode none
attr title "packet popped, vector(packetBytes)"
vector 350 NetworkWithShapingAndPolicing.R15.ppp[1].ppp.queue.beQueue queueingTime:vector ETV
attr interpolationmode none
attr source queueingTime(packetPopped)
attr title "queueing times, vector"
attr unit s
vector 351 NetworkWithShapingAndPolicing.R15.ppp[1].ppp.queue queueingTime:vector ETV
attr interpolationmode none
attr source queueingTime(packetPopped)
attr title "queueing times, vector"
attr unit s
vector 352 NetworkWithShapingAndPolicing.R15.ppp[1].ppp.queue.wrr packetPopped:vector(packetBytes) ETV
attr interpolationmode none
attr title "packets popped, vector(packetBytes)"
vector 353 NetworkWithShapingAndPolicing.R15.ppp[1].ppp.queue.priority packetPopped:vector(packetBytes) ETV
attr interpolationmode none
attr title "packets popped, vector(packetBytes)"
vector 354 NetworkWithShapingAndPolicing.R15.ppp[1].ppp.queue packetPopped:vector(packetBytes) ETV
attr interpolationmode none
attr source localSignal(packetPopped)
attr title "packets popped, vector(packetBytes)"
vector 355 NetworkWithShapingAndPolicing.R15.ppp[1].ppp txPk:vector(packetBytes) ETV
attr interpolationmode none
attr source packetSentToLower
attr title "packets transmitted, vector(packetBytes)"
vector 356 NetworkWithShapingAndPolicing.R14.ppp[0].ppp rcvdPkFromHl:vector(packetBytes) ETV
attr interpolationmode none
attr source packetReceivedFromUpper
attr title "packets received from higher layer, vector(packetBytes)"
vector 357 NetworkWithShapingAndPolicing.R14.ppp[0].ppp.queue packetPushed:vector(packetBytes) ETV
attr interpolationmode none
attr source localSignal(packetPushed)
attr title "packets pushed, vector(packetBytes)"
vector 358 NetworkWithShapingAndPolicing.R14.ppp[0].ppp.queue queueLength:vector ETV
attr interpolationmode sample-hold
attr source "count(localSignal(packetPushed)) - count(localSignal(packetPopped)) - count(localSignal(packetRemoved)) - count(packetDropped)"
attr title "queue length, vector"
vector 359 NetworkWithShapingAndPolicing.R14.ppp[0].ppp.queue.classifier pkClass:vector ETV
attr interpolationmode none
attr source pkClass
attr title "packet class, vector"
vector 360 NetworkWithShapingAndPolicing.R14.ppp[0].ppp.queue.beQueue packetPushed:vector(packetBytes) ETV
attr interpolationmode none
attr title "packet pushed, vector(packetBytes)"
vector 361 NetworkWithShapingAndPolicing.R14.ppp[0].ppp.queue.beQueue packetPopped:vector(packetBytes) ETV
attr interpolationmode none
attr title "packet popped, vector(packetBytes)"
vector 362 NetworkWithShapingAndPolicing.R14.ppp[0].ppp.queue.beQueue queueingTime:vector ETV
attr interpolationmode none
attr source queueingTime(packetPopped)
attr title "queueing times, vector"
attr unit s
vector 363 NetworkWithShapingAndPolicing.R14.ppp[0].ppp.queue queueingTime:vector ETV
attr interpolationmode none
attr source queueingTime(packetPopped)
attr title "queueing times, vector"
attr unit s
vector 364 NetworkWithShapingAndPolicing.R14.ppp[0].ppp.queue.wrr packetPopped:vector(packetBytes) ETV
attr interpolationmode none
attr title "packets popped, vector(packetBytes)"
vector 365 NetworkWithShapingAndPolicing.R14.ppp[0].ppp.queue.priority packetPopped:vector(packetBytes) ETV
attr interpolationmode none
attr title "packets popped, vector(packetBytes)"
vector 366 NetworkWithShapingAndPolicing.R14.ppp[0].ppp.queue packetPopped:vector(packetBytes) ETV
attr interpolationmode none
attr source localSignal(packetPopped)
attr title "packets popped, vector(packetBytes)"
vector 367 NetworkWithShapingAndPolicing.R14.ppp[0].ppp txPk:vector(packetBytes) ETV
attr interpolationmode none
attr source packetSentToLower
attr title "packets transmitted, vector(packetBytes)"
vector 368 NetworkWithShapingAndPolicing.R12.ppp[1].ppp rcvdPkFromHl:vector(packetBytes) ETV
attr interpolationmode none
attr source packetReceivedFromUpper
attr title "packets received from higher layer, vector(packetBytes)"
vector 369 NetworkWithShapingAndPolicing.R12.ppp[1].ppp.queue packetPushed:vector(packetBytes) ETV
attr interpolationmode none
attr source localSignal(packetPushed)
attr title "packets pushed, vector(packetBytes)"
vector 370 NetworkWithShapingAndPolicing.R12.ppp[1].ppp.queue queueLength:vector ETV
attr interpolationmode sample-hold
attr source "count(localSignal(packetPushed)) - count(localSignal(packetPopped)) - count(localSignal(packetRemoved)) - count(packetDropped)"
attr title "queue length, vector"
vector 371 NetworkWithShapingAndPolicing.R12.ppp[1].ppp.queue.classifier pkClass:vector ETV
attr interpolationmode none
attr source pkClass
attr title "packet class, vector"
vector 372 NetworkWithShapingAndPolicing.R12.ppp[1].ppp.queue.beQueue packetPushed:vector(packetBytes) ETV
attr interpolationmode none
attr title "packet pushed, vector(packetBytes)"
vector 373 NetworkWithShapingAndPolicing.R12.ppp[1].ppp.queue.beQueue packetPopped:vector(packetBytes) ETV
attr interpolationmode none
attr title "packet popped, vector(packetBytes)"
vector 374 NetworkWithShapingAndPolicing.R12.ppp[1].ppp.queue.beQueue queueingTime:vector ETV
attr interpolationmode none
attr source queueingTime(packetPopped)
attr title "queueing times, vector"
attr unit s
vector 375 NetworkWithShapingAndPolicing.R12.ppp[1].ppp.queue queueingTime:vector ETV
attr interpolationmode none
attr source queueingTime(packetPopped)
attr title "queueing times, vector"
attr unit s
vector 376 NetworkWithShapingAndPolicing.R12.ppp[1].ppp.queue.wrr packetPopped:vector(packetBytes) ETV
attr interpolationmode none
attr title "packets popped, vector(packetBytes)"
vector 377 NetworkWithShapingAndPolicing.R12.ppp[1].ppp.queue.priority packetPopped:vector(packetBytes) ETV
attr interpolationmode none
attr title "packets popped, vector(packetBytes)"
vector 378 NetworkWithShapingAndPolicing.R12.ppp[1].ppp.queue packetPopped:vector(packetBytes) ETV
attr interpolationmode none
attr source localSignal(packetPopped)
attr title "packets popped, vector(packetBytes)"
vector 379 NetworkWithShapingAndPolicing.R12.ppp[1].ppp txPk:vector(packetBytes) ETV
attr interpolationmode none
attr source packetSentToLower
attr title "packets transmitted, vector(packetBytes)"
vector 380 NetworkWithShapingAndPolicing.R4.ppp[1].ppp rcvdPkFromHl:vector(packetBytes) ETV
attr interpolationmode none
attr source packetReceivedFromUpper
attr title "packets received from higher layer, vector(packetBytes)"
vector 381 NetworkWithShapingAndPolicing.R4.ppp[1].ppp.queue packetPushed:vector(packetBytes) ETV
attr interpolationmode none
attr source localSignal(packetPushed)
attr title "packets pushed, vector(packetBytes)"
vector 382 NetworkWithShapingAndPolicing.R4.ppp[1].ppp.queue queueLength:vector ETV
attr interpolationmode sample-hold
attr source "count(localSignal(packetPushed)) - count(localSignal(packetPopped)) - count(localSignal(packetRemoved)) - count(packetDropped)"
attr title "queue length, vector"
vector 383 NetworkWithShapingAndPolicing.R4.ppp[1].ppp.queue.classifier pkClass:vector ETV
attr interpolationmode none
attr source pkClass
attr title "packet class, vector"
vector 384 NetworkWithShapingAndPolicing.R4.ppp[1].ppp.queue.beQueue packetPushed:vector(packetBytes) ETV
attr interpolationmode none
attr title "packet pushed, vector(packetBytes)"
vector 385 NetworkWithShapingAndPolicing.R4.ppp[1].ppp.queue.beQueue packetPopped:vector(packetBytes) ETV
attr interpolationmode none
attr title "packet popped, vector(packetBytes)"
vector 386 NetworkWithShapingAndPolicing.R4.ppp[1].ppp.queue.beQueue queueingTime:vector ETV
attr interpolationmode none
attr source queueingTime(packetPopped)
attr title "queueing times, vector"
attr unit s
vector 387 NetworkWithShapingAndPolicing.R4.ppp[1].ppp.queue queueingTime:vector ETV
attr interpolationmode none
attr source queueingTime(packetPopped)
attr title "queueing times, vector"
attr unit s
vector 388 NetworkWithShapingAndPolicing.R4.ppp[1].ppp.queue.wrr packetPopped:vector(packetBytes) ETV
attr interpolationmode none
attr title "packets popped, vector(packetBytes)"
vector 389 NetworkWithShapingAndPolicing.R4.ppp[1].ppp.queue.priority packetPopped:vector(packetBytes) ETV
attr interpolationmode none
attr title "packets popped, vector(packetBytes)"
vector 390 NetworkWithShapingAndPolicing.R4.ppp[1].ppp.queue packetPopped:vector(packetBytes) ETV
attr interpolationmode none
[...]
547	83844326 4494 882386 936112 1135.660838389152 1240.11964426581 137 46 528 48466 21855284
548	83848820 371 885829 936117 1140.119763288281 1240.119763288281 12 68 84 832 57920
549	83849191 371 885829 936117 1140.119763288281 1240.119763288281 12 68 84 832 57920
550	83849562 718 885829 936117 1140.119763288281 1240.119763288281 24 0 1 12 12
551	83850280 371 885829 936117 1140.119763288281 1240.119763288281 12 -1 -1 -12 12
552	83850651 371 885829 936117 1140.119763288281 1240.119763288281 12 68 84 832 57920
553	83851022 371 885829 936117 1140.119763288281 1240.119763288281 12 68 84 832 57920
554	83851393 359 885829 936117 1140.119763288281 1240.119763288281 12 0 0 0 0
555	83851752 1436 885829 936117 1140.119763288281 1240.119763288281 48 0 0 0 0
556	83853188 371 885829 936117 1140.119763288281 1240.119763288281 12 68 84 832 57920
557	83853559 371 885829 936117 1140.119763288281 1240.119763288281 12 68 84 832 57920
558	83853930 371 885829 936117 1140.119763288281 1240.119763288281 12 68 84 832 57920
559	83854301 371 885829 936117 1140.119763288281 1240.119763288281 12 75 91 916 70156
560	83854672 547 885832 936120 1140.123052620812 1240.123052620812 17 47 151 1391 129041
561	83855219 547 885832 936120 1140.123052620812 1240.123052620812 17 40 144 1272 110400
562	83855766 506 885835 936123 1140.123131343521 1240.123131343521 16 47 147 1184 95152
563	83856272 506 885835 936123 1140.123131343521 1240.123131343521 16 40 140 1072 79360
564	83856778 4473 882879 936130 1136.327544019152 1240.127063445195 136 47 535 49014 22278912
565	83861251 4473 882879 936130 1136.327544019152 1240.127063445195 136 40 528 48062 21599380
566	83865724 15915 885843 936136 1140.127494704792 1240.127494704792 483 47 535 202975 98182563
567	83881639 15915 885843 936136 1140.127494704792 1240.127494704792 483 40 528 199594 95364580
568	83897554 417 885853 936143 1140.129023351139 1240.129023351139 13 71 151 1047 89717
569	83897971 417 885853 936143 1140.129023351139 1240.129023351139 13 64 144 956 75696
570	83898388 385 885856 936149 1140.129292504552 1240.129292504552 12 75 151 976 84676
571	83898773 385 885856 936149 1140.129292504552 1240.129292504552 12 68 144 892 71600
572	83899158 14296 882452 936152 1135.788544019152 1240.129373400851 434 47 535 189532 94233194
573	83913454 14296 882452 936152 1135.788544019152 1240.129373400851 434 40 528 186494 91601012
574	83927750 417 885850 936140 1140.128923347561 1240.128923347561 13 71 151 1047 89717
575	83928167 417 885850 936140 1140.128923347561 1240.128923347561 13 64 144 956 75696
576	83928584 10522 882276 936616 1135.559888986389 1247.050272496788 320 55 535 121608 56841424
577	83939106 10522 882276 936616 1135.559888986389 1247.050272496788 320 48 528 119368 55154592
578	83949628 17469 882240 936155 1135.534044019152 1240.129597807824 530 47 535 213100 100308138
579	83967097 17469 882240 936155 1135.534044019152 1240.129597807824 530 40 528 209390 97350708
580	83984566 385 885864 936160 1140.131782276554 1240.131782276554 12 75 151 976 84676
581	83984951 385 885864 936160 1140.131782276554 1240.131782276554 12 68 144 892 71600
582	83985336 482 885868 936164 1140.132486760164 1240.132486760164 15 71 151 1245 110887
583	83985818 482 885868 936164 1140.132486760164 1240.132486760164 15 64 144 1140 94192
584	83986300 385 885871 936167 1140.134089763719 1240.134089763719 12 75 151 976 84676
585	83986685 385 885871 936167 1140.134089763719 1240.134089763719 12 68 144 892 71600
586	83987070 7711 882404 936174 1135.678138986389 1240.136343115973 234 71 535 104382 52207418
587	83994781 7711 882404 936174 1135.678138986389 1240.136343115973 234 64 528 102744 50757536
588	84002492 376 885879 936179 1140.137496321822 1240.137496321822 12 75 91 916 70156
589	84002868 376 885879 936179 1140.137496321822 1240.137496321822 12 68 84 832 57920
590	84003244 417 885882 936182 1140.138083512909 1240.138083512909 13 71 151 1047 89717
591	84003661 417 885882 936182 1140.138083512909 1240.138083512909 13 64 144 956 75696
592	84004078 1251 884048 936623 1137.553294019152 1247.474794019152 39 47 151 2601 195591
593	84005329 1251 884048 936623 1137.553294019152 1247.474794019152 39 40 144 2328 161088
594	84006580 494 885889 936189 1140.13857942101 1240.13857942101 16 47 147 1184 95152
595	84007074 494 885889 936189 1140.13857942101 1240.13857942101 16 40 140 1072 79360
596	84007568 5134 882658 936192 1136.058044019152 1240.138625121375 156 47 535 58534 27067132
597	84012702 5134 882658 936192 1136.058044019152 1240.138625121375 156 40 528 57442 26255300
598	84017836 4992 882659 936193 1136.058044019152 1240.138625121375 156 -1 -1 -156 156
599	84022828 5134 882659 936193 1136.058044019152 1240.138625121375 156 40 528 57442 26255300
600	84027962 374 885901 936201 1140.14080181749 1240.14080181749 12 75 151 976 84676
601	84028336 374 885901 936201 1140.14080181749 1240.14080181749 12 68 144 892 71600
602	84028710 377 885897 936197 1140.140513288281 1240.140513288281 12 75 91 916 70156
603	84029087 377 885897 936197 1140.140513288281 1240.140513288281 12 68 84 832 57920
604	84029464 376 885904 936204 1140.142553060732 1240.142553060732 12 71 75 896 66916
605	84029840 376 885904 936204 1140.142553060732 1240.142553060732 12 64 68 812 54960
606	84030216 505 885910 936208 1140.145134331586 1240.145134331586 16 47 147 1184 95152
607	84030721 505 885910 936208 1140.145134331586 1240.145134331586 16 40 140 1072 79360
608	84031226 766 885924 936213 1140.146059950379 1240.148059950379 24 59 359 2372 331568
609	84031992 766 885924 936213 1140.146059950379 1240.148059950379 24 52 352 2204 299536
610	84032758 376 885930 936216 1140.149055914097 1240.149055914097 12 71 75 896 66916
611	84033134 376 885930 936216 1140.149055914097 1240.149055914097 12 64 68 812 54960
612	84033510 376 885946 936220 1140.153336309436 1240.153336309436 12 71 75 896 66916
613	84033886 376 885946 936220 1140.153336309436 1240.153336309436 12 64 68 812 54960
614	84034262 418 885950 936224 1140.157726617754 1240.157726617754 13 75 151 1103 100805
615	84034680 418 885950 936224 1140.157726617754 1240.157726617754 13 68 144 1012 86000
616	84035098 31 934754 934754 1229.473917456389 1229.473917456389 1 5 5 5 25
621	84035129 32 934266 934266 1226.151331770574 1226.151331770574 1 28 28 28 784
622	84035161 90223 882250 935291 1135.548133834169 1230.366142551375 2740 28 528 1075974 494333492
623	84125384 90224 882251 935292 1135.548133834169 1230.366142551375 2740 46 546 1125294 533956316
624	84215608 90224 882251 935292 1135.548133834169 1230.366142551375 2740 64 546 1125330 533960492
625	84305832 169511 882251 935292 1135.548133834169 1230.366142551375 5480 0 1 2740 2740
626	84475343 90224 882251 935292 1135.548133834169 1230.366142551375 2740 64 546 1125330 533960492
627	84565567 90224 882251 935292 1135.548133834169 1230.366142551375 2740 64 546 1125330 533960492
628	84655791 169511 882251 935292 1135.548133834169 1230.366142551375 5480 0 1 2740 2740
629	84825302 90239 882251 935292 1135.548133834169 1230.366142551375 2740 64 546 1125330 533960492
630	84915541 84950 882251 935292 1135.548133834169 1230.366142551375 2740 0 2.2002979e-05 0.000336764685 7.3071246731166e-09
631	85000491 254850 882251 935292 1135.548133834169 1230.366142551375 8220 0 2.2002979e-05 0.001010294055 2.192137401935e-08
632	85255341 90239 882251 935292 1135.548133834169 1230.366142551375 2740 64 546 1125330 533960492
633	85345580 90239 882251 935292 1135.548133834169 1230.366142551375 2740 64 546 1125330 533960492
634	85435819 90239 882252 935294 1135.548151914169 1230.366148311375 2740 64 546 1125330 533960492
635	85526058 90239 882253 935295 1135.548151964169 1230.366148361375 2740 64 546 1125330 533960492
636	85616297 90239 882253 935295 1135.548151964169 1230.366148361375 2740 64 546 1125330 533960492
637	85706536 90238 882254 935296 1135.548151964169 1230.366148361375 2740 46 528 1076010 494336372
638	85796774 84764 882255 935297 1135.548151964169 1230.366148361375 2740 -1 2 1619 1629
639	85881538 32 934273 934273 1226.151337580574 1226.151337580574 1 28 28 28 784
640	85881570 90206 882255 935297 1135.548151964169 1230.366148361375 2739 46 528 1075964 494334256
650	85971776 32 931782 931782 1207.427138986389 1207.427138986389 1 28 28 28 784
651	85971808 32 931788 931788 1207.427144796389 1207.427144796389 1 28 28 28 784
652	85971840 161 931789 935201 1207.427144796389 1230.224880931375 5 28 140 288 25184
653	85972001 161 931790 935202 1207.427144796389 1230.224880931375 5 46 158 378 37172
654	85972162 161 931790 935202 1207.427144796389 1230.224880931375 5 64 158 414 41348
655	85972323 310 931790 935210 1207.427144796389 1230.224887651375 10 0 1 5 5
656	85972633 161 931790 935202 1207.427144796389 1230.224880931375 5 64 158 414 41348
657	85972794 161 931790 935202 1207.427144796389 1230.224880931375 5 64 158 414 41348
658	85972955 310 931790 935210 1207.427144796389 1230.224887651375 10 0 1 5 5
659	85973265 161 931790 935210 1207.427144796389 1230.224887651375 5 64 158 414 41348
660	85973426 169 931790 935210 1207.427144796389 1230.224887651375 5 0 6.72e-06 1.344e-05 9.03168e-11
661	85973595 507 931790 935210 1207.427144796389 1230.224887651375 15 0 6.72e-06 4.032e-05 2.709504e-10
662	85974102 161 931790 935210 1207.427144796389 1230.224887651375 5 64 158 414 41348
663	85974263 161 931790 935210 1207.427144796389 1230.224887651375 5 64 158 414 41348
664	85974424 161 931792 935211 1207.427150556389 1230.224893411375 5 64 158 414 41348
665	85974585 161 931793 935212 1207.427150606389 1230.224893461375 5 64 158 414 41348
666	85974746 161 931793 935212 1207.427150606389 1230.224893461375 5 64 158 414 41348
667	85974907 161 931794 935213 1207.427150606389 1230.224893461375 5 46 140 324 28064
668	85975068 156 931795 935214 1207.427150606389 1230.224893461375 5 -1 0 -1 1
676	85975224 129 934644 935214 1229.119404126389 1230.224893461375 4 46 140 278 25948
677	85975353 129 934646 935216 1229.119404126389 1230.224893461375 4 40 140 260 24400
678	85975482 129 934646 935218 1229.119404126389 1230.236636741375 4 40 140 260 24400
679	85975611 142 934646 935218 1229.119404126389 1230.236636741375 4 0 0.01174328 0.02347904 0.000275632687936
680	85975753 129 934662 935225 1229.133154126389 1230.250386741375 4 40 140 260 24400
681	85975882 129 934662 935227 1229.133154126389 1230.262136741375 4 40 140 260 24400
682	85976011 130 934662 935227 1229.133154126389 1230.262136741375 4 0 0.01175 0.01175 0.0001380625
683	85976141 129 934666 935239 1229.158654126389 1230.287636741375 4 40 140 260 24400
684	85976270 129 934666 935239 1229.158654126389 1230.287636741375 4 40 140 260 24400
685	85976399 124 934666 935239 1229.158654126389 1230.287636741375 4 0 0 0 0
692	85976523 1650 882242 884421 1135.534044019152 1138.069794019152 50 200 200 10000 2000000
693	85978173 1650 882259 884454 1135.551794019152 1138.101294019152 50 200 200 10000 2000000
694	85979823 1816 882259 884454 1135.551794019152 1138.101294019152 50 0.01775 0.0315 1.355 0.0387775
705	85981639 32 934632 934632 1229.119398316389 1229.119398316389 1 50 50 50 2500
706	85981671 45 934632 934632 1229.119398316389 1229.119398316389 1 623.96806654581 623.96806654581 623.96806654581 389336.14806892
707	85981716 33 934632 934632 1229.119398316389 1229.119398316389 1 100 100 100 10000
709	85981749 36867 882247 929947 1135.548133834169 1199.82940713889 1123 172 172 193156 33222832
710	86018616 90063 882248 930028 1135.548133834169 1199.992844616389 2735 180 508 1021036 452384368
711	86108679 1641 882289 897136 1135.568151964169 1156.509479564524 50 200 200 10000 2000000
712	86110320 3564 884830 905005 1138.500388986389 1165.390638986389 108 200 200 21600 4320000
713	86113884 4838 884830 905005 1138.500388986389 1165.390638986389 108 5.483234259272 27.804844967237 1918.5895752222 39780.939796718
714	86118722 53196 882260 930027 1135.552844616389 1199.992844616389 1612 500 500 806000 403000000
715	86171918 4620 882494 897800 1135.832888986389 1157.472888986389 140 528 528 73920 39029760
716	86176538 1584 884861 904977 1138.554138986389 1165.340888986389 48 200 200 9600 1920000
717	86178122 1584 888406 921518 1144.503638986389 1187.233638986389 48 200 200 9600 1920000
718	86179706 1771 888406 921518 1144.503638986389 1187.233638986389 48 5.9495 23.626 749.012 13479.120303125
726	86181477 1584 888457 921582 1144.609138986389 1187.339138986389 48 200 200 9600 1920000
727	86183061 1584 888474 921582 1144.639388986389 1187.339138986389 48 200 200 9600 1920000
728	86184645 1494 888474 921582 1144.639388986389 1187.339138986389 48 0 0.03025 0.03025 0.0009150625
729	86186139 33 934754 934754 1229.473917456389 1229.473917456389 1 100 100 100 10000
730	86186172 40 934754 934754 1229.473917456389 1229.473917456389 1 0.35451914 0.35451914 0.35451914 0.12568382062634
731	86186212 3993 882388 935382 1135.660838389152 1230.734157116389 121 180 508 45068 19942544
732	86190205 4114 882388 935382 1135.660838389152 1230.734157116389 121 1430 1550 180290 268779720
733	86194319 1056 888821 935383 1144.957907116389 1230.734157116389 32 172 172 5504 946688
734	86195375 1434 888821 935383 1144.957907116389 1230.734157116389 32 0.688617477626 53.320801293424 811.15916700109 28645.495140014
735	86196809 5973 882275 901231 1135.557888986389 1161.739388986389 181 528 528 95568 50459904
736	86202782 6549 882275 901231 1135.557888986389 1161.739388986389 181 2.205 6.3925 897.296 4584.723683375
737	86209331 5412 882278 901386 1135.559888986389 1161.875138986389 164 528 528 86592 45720576
738	86214743 5742 882403 920925 1135.676138986389 1186.204138986389 174 528 528 91872 48508416
739	86220485 6387 882403 920925 1135.676138986389 1186.204138986389 174 1.45375 24.329 2409.784 42291.632884125
740	86226872 5775 882406 921043 1135.678138986389 1186.473638986389 175 528 528 92400 48787200
741	86232647 5775 882406 921043 1135.678138986389 1186.473638986389 175 528 528 92400 48787200
742	86238422 5425 882406 921043 1135.678138986389 1186.473638986389 175 0 0 0 0
745	86243847 2343 882389 934616 1135.660838389152 1229.095183356389 71 500 500 35500 17750000
746	86246190 23414 882389 936785 1133.3 1250 1168 0 40000 2880000 115200000000
747	86269604 2952 882389 934616 1135.660838389152 1229.095183356389 71 5.43583874 31.83483874 1777.4612869464 47224.574074973
748	86272556 2485 882389 934616 1135.660838389152 1229.095183356389 71 27739 29937 2055059 59509955093
749	86275041 25193 882237 897893 1135.528151964169 1157.568544019152 766 48 528 286752 128447264
755	86300234 16136 882246 935279 1135.546388986389 1230.365888986389 489 68 528 230044 115948496
756	86316370 16136 882246 935279 1135.546388986389 1230.365888986389 489 68 528 230044 115948496
757	86332506 725 884125 934812 1137.688388986389 1229.646888986389 22 68 528 9516 4665168
758	86333231 725 884125 934812 1137.688388986389 1229.646888986389 22 68 528 9516 4665168
759	86333956 4770 898072 929897 1157.813557768763 1199.76942526889 145 200 200 29000 5800000
760	86338726 6402 882239 931973 1135.532044019152 1208.038888986389 194 200 200 38800 7760000
761	86345128 8649 882239 931973 1135.532044019152 1208.038888986389 194 0.046831217626 34.826476683621 3241.6344493421 70093.802697726
762	86353777 10593 897932 929997 1157.592888986389 1199.912888986389 321 528 528 169488 89489664
763	86364370 10593 897932 931163 1157.592888986389 1205.110638986389 321 528 528 169488 89489664
764	86374963 11622 897932 931163 1157.592888986389 1205.110638986389 321 0 8.27525 1805.69275 11005.062216313
768	86386585 4785 898189 931989 1157.914138986389 1208.092638986389 145 200 200 29000 5800000
769	86391370 4785 898271 932013 1157.996138986389 1208.230888986389 145 200 200 29000 5800000
770	86396155 5265 898271 932013 1157.996138986389 1208.230888986389 145 0.0045 0.13825 15.74875 1.8927796875
771	86401420 2409 898406 931996 1158.049888986389 1208.129388986389 73 200 200 14600 2920000
772	86403829 2937 885342 935274 1139.567044019152 1230.363888986389 89 200 200 17800 3560000
773	86406766 3304 885342 935274 1139.567044019152 1230.363888986389 89 0.082 23.60025 1267.9535 22844.85354
774	86410070 10593 898034 931195 1157.728638986389 1205.246388986389 321 528 528 169488 89489664
775	86420663 10593 898034 931201 1157.728638986389 1205.283888986389 321 528 528 169488 89489664
776	86431256 11784 898034 931201 1157.728638986389 1205.283888986389 321 0 0.57375 11.2545 0.755926125
780	86443040 7986 898125 931229 1157.864388986389 1205.419638986389 242 528 528 127776 67465728
781	86451026 10329 882451 934813 1135.786544019152 1229.806888986389 313 528 528 165264 87259392
782	86461355 11579 882451 934813 1135.786544019152 1229.806888986389 313 0 25.07125 5507.0375 114856.82345925
786	86472934 45395 900489 930037 1160.472888986389 1199.992888986389 1378 68 528 517924 231714032
796	86518329 594 885548 921721 1139.992562149152 1187.554157116389 18 172 172 3096 532512
801	86518923 5079 914474 932020 1179.655888986389 1208.284638986389 154 68 528 56316 24917808
802	86524002 129 934686 935250 1229.184154126389 1230.313136741375 4 40 140 260 24400
803	86524131 129 934686 935250 1229.184154126389 1230.313136741375 4 40 140 260 24400
804	86524260 124 934686 935250 1229.184154126389 1230.313136741375 4 0 0 0 0
805	86524384 129 934690 935255 1229.197904126389 1230.326886741375 4 40 140 260 24400
806	86524513 129 934690 935255 1229.197904126389 1230.326886741375 4 40 140 260 24400
807	86524642 124 934690 935255 1229.197904126389 1230.326886741375 4 0 0 0 0
808	86524766 129 934694 935273 1229.223404126389 1230.352386741375 4 40 140 260 24400
809	86524895 129 934694 935273 1229.223404126389 1230.352386741375 4 40 140 260 24400
810	86525024 124 934694 935273 1229.223404126389 1230.352386741375 4 0 0 0 0
817	86525148 2625 896251 905036 1155.606388986389 1165.444388986389 80 68 528 21656 7429792
822	86527773 128 934289 935299 1226.151352720574 1230.366148361375 4 40 90 210 12900
823	86527901 128 934289 935299 1226.151352720574 1230.366148361375 4 40 90 210 12900
824	86528029 133 934289 935299 1226.151352720574 1230.366148361375 4 0 0.01174328 0.01174328 0.0001379046251584
825	86528162 128 934294 935308 1226.177602720574 1230.379898361375 4 40 90 210 12900
826	86528290 128 934294 935308 1226.177602720574 1230.379898361375 4 40 90 210 12900
827	86528418 124 934294 935308 1226.177602720574 1230.379898361375 4 0 0 0 0
840	86528542 128 934298 935312 1226.203852720574 1230.393648361375 4 40 90 210 12900
841	86528670 128 934495 935313 1228.418388986389 1230.467388986389 4 40 90 210 12900
842	86528798 168 934495 935313 1228.418388986389 1230.467388986389 4 0.073740625014 2.214536265815 3.445958330829 5.5797907418975
870	86528966 155 934265 935288 1226.151331770574 1230.366142551375 5 0 0 0 0
871	86529121 156 934265 935288 1226.151331770574 1230.366142551375 4 151263647 151263748 605054889 9.1522854675708e+16
872	86529277 136 934265 935288 1226.151331770574 1230.366142551375 4 7504 7504 30016 225240064
873	86529413 156 934265 935288 1226.151331770574 1230.366142551375 4 151256143 151256244 605024873 9.1513774237174e+16
879	86529569 156 934709 935288 1229.237159936389 1230.366142551375 4 151256143 151256243 605024772 9.1513743683423e+16
880	86529725 156 934709 935288 1229.237159936389 1230.366142551375 4 143290802 143290803 573163210 8.2129016324376e+16
881	86529881 68 934709 935268 1229.237159936389 1230.342642551375 2 7504 7504 15008 112620032
882	86529949 39 934265 934265 1226.151331770574 1226.151331770574 1 143290752 143290752 143290752 2.0532239608726e+16
883	86529988 93 934709 935268 1229.237159936389 1230.342642551375 3 0 1 1 1
884	86530081 31 934265 934265 1226.151331770574 1226.151331770574 1 8 8 8 64
885	86530112 102 934265 935268 1226.151331770574 1230.342642551375 3 1072 1072 3216 3447552
886	86530214 101 934265 935268 1226.151331770574 1230.342642551375 3 536 1340 2948 3232080
893	86530315 124 934709 935288 1229.237159936389 1230.366142551375 4 0 0 0 0
900	86530439 236403 936785 936785 0.1 1250 12500 0 0 0 0

